Initialize SIGNATURE TABLE
ST_SET: 1
ST_WAY: 256
ST_TAG_BIT: 16
ST_TAG_MASK: ffff

Initialize PATTERN TABLE
PT_SET: 512
PT_WAY: 4
SIG_DELTA_BIT: 7
C_SIG_BIT: 4
C_DELTA_BIT: 4

Initialize PREFETCH FILTER
FILTER_SET: 1024

*** ChampSim Multicore Out-of-Order Simulator ***

Warmup Instructions: 50000000
Simulation Instructions: 50000000
Number of CPUs: 1
LLC sets: 2048
LLC ways: 16
Off-chip DRAM Size: 4096 MB Channels: 1 Width: 64-bit Data Rate: 3200 MT/s

CPU 0 runs /home/ansari/ipc1_public//server_022.champsimtrace.xz
CPU 0 L1D next line prefetcher
Heartbeat CPU 0 instructions: 10000002 cycles: 3624827 heartbeat IPC: 2.75875 cumulative IPC: 2.75875 (Simulation time: 0 hr 1 min 1 sec) 
Heartbeat CPU 0 instructions: 20000001 cycles: 7255650 heartbeat IPC: 2.7542 cumulative IPC: 2.75647 (Simulation time: 0 hr 2 min 10 sec) 
Heartbeat CPU 0 instructions: 30000003 cycles: 10880004 heartbeat IPC: 2.75911 cumulative IPC: 2.75735 (Simulation time: 0 hr 3 min 20 sec) 
Heartbeat CPU 0 instructions: 40000003 cycles: 14511645 heartbeat IPC: 2.75358 cumulative IPC: 2.75641 (Simulation time: 0 hr 4 min 32 sec) 
Heartbeat CPU 0 instructions: 50000002 cycles: 18133710 heartbeat IPC: 2.76086 cumulative IPC: 2.7573 (Simulation time: 0 hr 5 min 46 sec) 

Warmup complete CPU 0 instructions: 50000002 cycles: 18133710 (Simulation time: 0 hr 5 min 46 sec) 

Heartbeat CPU 0 instructions: 60000002 cycles: 35506921 heartbeat IPC: 0.575599 cumulative IPC: 0.575599 (Simulation time: 0 hr 7 min 17 sec) 
Heartbeat CPU 0 instructions: 70000001 cycles: 53185033 heartbeat IPC: 0.565671 cumulative IPC: 0.570592 (Simulation time: 0 hr 8 min 41 sec) 
Heartbeat CPU 0 instructions: 80000001 cycles: 70580302 heartbeat IPC: 0.574869 cumulative IPC: 0.57201 (Simulation time: 0 hr 9 min 40 sec) 
Heartbeat CPU 0 instructions: 90000003 cycles: 88205349 heartbeat IPC: 0.567374 cumulative IPC: 0.570844 (Simulation time: 0 hr 10 min 34 sec) 
Heartbeat CPU 0 instructions: 100000003 cycles: 105706322 heartbeat IPC: 0.571397 cumulative IPC: 0.570955 (Simulation time: 0 hr 11 min 29 sec) 
Finished CPU 0 instructions: 50000001 cycles: 87572612 cumulative IPC: 0.570955 (Simulation time: 0 hr 11 min 29 sec) 


SHEET
IPC: 0.570955


ChampSim completed all CPUs

Region of Interest Statistics

CPU 0 cumulative IPC: 0.570955 instructions: 50000001 cycles: 87572612
L1D TOTAL     ACCESS:   19032722  HIT:   16821998  MISS:    2210724
L1D LOAD      ACCESS:    7209498  HIT:    6493464  MISS:     716034
L1D RFO       ACCESS:    5917621  HIT:    4937930  MISS:     979691
L1D PREFETCH  ACCESS:    5905603  HIT:    5390604  MISS:     514999
L1D WRITEBACK ACCESS:          0  HIT:          0  MISS:          0
L1D PREFETCH  REQUESTED:    7251945  ISSUED:    7050794  USEFUL:     193818  USELESS:     321186
L1D AVERAGE MISS LATENCY: 179.134 cycles
L1I TOTAL     ACCESS:   19503257  HIT:   16819151  MISS:    2684106
L1I LOAD      ACCESS:   10013238  HIT:    9276020  MISS:     737218
L1I RFO       ACCESS:          0  HIT:          0  MISS:          0
L1I PREFETCH  ACCESS:    9490019  HIT:    7543131  MISS:    1946888
L1I WRITEBACK ACCESS:          0  HIT:          0  MISS:          0
L1I PREFETCH  REQUESTED:   12815142  ISSUED:   12470632  USEFUL:    1672165  USELESS:     274732
L1I AVERAGE MISS LATENCY: 16.0211 cycles
L2C TOTAL     ACCESS:    7276864  HIT:    5398731  MISS:    1878133
L2C LOAD      ACCESS:     974302  HIT:     697702  MISS:     276600
L2C RFO       ACCESS:     979089  HIT:      20458  MISS:     958631
L2C PREFETCH  ACCESS:    4138274  HIT:    3498261  MISS:     640013
L2C WRITEBACK ACCESS:    1185199  HIT:    1182310  MISS:       2889
L2C PREFETCH  REQUESTED:    3729303  ISSUED:    3725627  USEFUL:      34338  USELESS:     605575
L2C AVERAGE MISS LATENCY: 217.89 cycles
LLC TOTAL     ACCESS:    3950055  HIT:    2574157  MISS:    1375898
LLC LOAD      ACCESS:     276546  HIT:     199983  MISS:      76563
LLC RFO       ACCESS:     958606  HIT:     141446  MISS:     817160
LLC PREFETCH  ACCESS:    1596557  HIT:    1116327  MISS:     480230
LLC WRITEBACK ACCESS:    1118346  HIT:    1116401  MISS:       1945
LLC PREFETCH  REQUESTED:          0  ISSUED:          0  USEFUL:      26299  USELESS:     454214
LLC AVERAGE MISS LATENCY: 288.231 cycles
Major fault: 0 Minor fault: 23517



CPU 0 #distinct_blocks: 3391



DisTable SINGLE
total_freq: 1622590
total_correct_predictions: 1198453
total_wrong_predictions: 422807
total_predictability: 1620696
total_first_and_second_predictions: 1575323



total circular correct: 1198453
total circular wrong: 422807



total_timely_predictions: 975402
total_untimely_predictions: 223051



dis_in_seq_region: 286	dis_out_of_sequential_region: 1608



histogram_num_of_dests 0: 2766
histogram_num_of_dests 1: 890
histogram_num_of_dests 2: 347
histogram_num_of_dests 3: 72
histogram_num_of_dests 4: 16
histogram_num_of_dests 5: 3
histogram_num_of_dests 6: 1
histogram_num_of_dests 7: 0
histogram_num_of_dests 8: 0
histogram_num_of_dests 9: 1
total_single_destination: 890
total_multiple_destination: 440
total_freq: 0
total_correct_predictions: 0
total_wrong_predictions: 0
total_predictability: 0
total_first_and_second_predictions: 0



total circular correct: 0
total circular wrong: 0



total_timely_predictions: 0
total_untimely_predictions: 0



dis_in_seq_region: 0	dis_out_of_sequential_region: 0



histogram_num_of_dests 0: 0
histogram_num_of_dests 1: 0
histogram_num_of_dests 2: 0
histogram_num_of_dests 3: 0
histogram_num_of_dests 4: 0
histogram_num_of_dests 5: 0
histogram_num_of_dests 6: 0
histogram_num_of_dests 7: 0
histogram_num_of_dests 8: 0
histogram_num_of_dests 9: 0
total_single_destination: 0
total_multiple_destination: 0



sequential_1_misses: 893978
sequential_4_misses: 973472
discontinuity_misses: 602387
sequential_1_prefHits: 1873909
sequential_4_prefHits 2106834
discontinuity_prefHits: 1145658



SeqTable
SeqTable matches: 50140919	conflicts: 840923



wrong_snl_table:
wrong_snl_table matches: 890315	conflicts: 3663



DisTable1
num_of_hits: 1998955	num_of_misses: 61509	num_of_evictions: 61509	num_of_ignored_dests: 0
num_of_updates: 2060464	internal_conflicts: 657787	external_conflicts: 60179



RLU_permit: 22749074
RLU_filter: 6517886



non_prefetched_miss_in_seq_region: 506458
non_prefetched_miss_in_Dis_region: 435728



update_history_entry_missed: 61509


SHEET
2K_wo_prefill, num_of_lookups: 0
2K_wo_prefill, num_of_updates: 0
2K_wo_prefill, num_of_predecodes: 0
2K_wo_prefill, num_of_hits: 0
2K_wo_prefill, num_of_misses: 0
2K_wo_prefill, hit rate: -nan
2K_wo_prefill, num_of_hits_demand: 0
2K_wo_prefill, num_of_misses_demand: 0
2K_wo_prefill, hit rate demand: -nan
2K_wo_prefill, num_of_hits_prefill: 0
2K_wo_prefill, num_of_misses_prefill: 0
2K_wo_prefill, hit rate prefill: -nan
2K_wo_prefill, num_of_hits_wrong_path: 0
2K_wo_prefill, num_of_misses_wrong_path: 0
2K_wo_prefill, btb_miss_stalls: 0
2K_wo_prefill, btb_miss_not_stalls: 0
2K_wo_prefill, direction_mispredictions_do_not_stall: 0
2K_wo_prefill, branch_direction_stalls: 0
2K_wo_prefill, target_prediction_stalls: 0
2K_wo_prefill, target misprediction reason NOTB: 0
2K_wo_prefill, target misprediction reason DJMP: 0
2K_wo_prefill, target misprediction reason INDR: 0
2K_wo_prefill, target misprediction reason COND: 0
2K_wo_prefill, target misprediction reason DCLL: 0
2K_wo_prefill, target misprediction reason ICLL: 0
2K_wo_prefill, target misprediction reason RETN: 0
2K_wo_prefill, target misprediction reason OTHR: 0
2K_wo_prefill, target misprediction reason EXCB: 0
2K_wo_prefill, target match reason NOTB: 0
2K_wo_prefill, target match reason DJMP: 0
2K_wo_prefill, target match reason INDR: 0
2K_wo_prefill, target match reason COND: 0
2K_wo_prefill, target match reason DCLL: 0
2K_wo_prefill, target match reason ICLL: 0
2K_wo_prefill, target match reason RETN: 0
2K_wo_prefill, target match reason OTHR: 0
2K_wo_prefill, target match reason EXCB: 0
2K_wo_prefill, num_of_hash_conflicts: 0
2K_wo_prefill, num_of_block_lookups: 0



SHEET
2K_with_prefill, num_of_lookups: 0
2K_with_prefill, num_of_updates: 0
2K_with_prefill, num_of_predecodes: 0
2K_with_prefill, num_of_hits: 0
2K_with_prefill, num_of_misses: 0
2K_with_prefill, hit rate: -nan
2K_with_prefill, num_of_hits_demand: 0
2K_with_prefill, num_of_misses_demand: 0
2K_with_prefill, hit rate demand: -nan
2K_with_prefill, num_of_hits_prefill: 0
2K_with_prefill, num_of_misses_prefill: 0
2K_with_prefill, hit rate prefill: -nan
2K_with_prefill, num_of_hits_wrong_path: 0
2K_with_prefill, num_of_misses_wrong_path: 0
2K_with_prefill, btb_miss_stalls: 0
2K_with_prefill, btb_miss_not_stalls: 0
2K_with_prefill, direction_mispredictions_do_not_stall: 0
2K_with_prefill, branch_direction_stalls: 0
2K_with_prefill, target_prediction_stalls: 0
2K_with_prefill, target misprediction reason NOTB: 0
2K_with_prefill, target misprediction reason DJMP: 0
2K_with_prefill, target misprediction reason INDR: 0
2K_with_prefill, target misprediction reason COND: 0
2K_with_prefill, target misprediction reason DCLL: 0
2K_with_prefill, target misprediction reason ICLL: 0
2K_with_prefill, target misprediction reason RETN: 0
2K_with_prefill, target misprediction reason OTHR: 0
2K_with_prefill, target misprediction reason EXCB: 0
2K_with_prefill, target match reason NOTB: 0
2K_with_prefill, target match reason DJMP: 0
2K_with_prefill, target match reason INDR: 0
2K_with_prefill, target match reason COND: 0
2K_with_prefill, target match reason DCLL: 0
2K_with_prefill, target match reason ICLL: 0
2K_with_prefill, target match reason RETN: 0
2K_with_prefill, target match reason OTHR: 0
2K_with_prefill, target match reason EXCB: 0
2K_with_prefill, num_of_hash_conflicts: 0
2K_with_prefill, num_of_block_lookups: 0



SHEET
4K_wo_prefill, num_of_lookups: 0
4K_wo_prefill, num_of_updates: 0
4K_wo_prefill, num_of_predecodes: 0
4K_wo_prefill, num_of_hits: 0
4K_wo_prefill, num_of_misses: 0
4K_wo_prefill, hit rate: -nan
4K_wo_prefill, num_of_hits_demand: 0
4K_wo_prefill, num_of_misses_demand: 0
4K_wo_prefill, hit rate demand: -nan
4K_wo_prefill, num_of_hits_prefill: 0
4K_wo_prefill, num_of_misses_prefill: 0
4K_wo_prefill, hit rate prefill: -nan
4K_wo_prefill, num_of_hits_wrong_path: 0
4K_wo_prefill, num_of_misses_wrong_path: 0
4K_wo_prefill, btb_miss_stalls: 0
4K_wo_prefill, btb_miss_not_stalls: 0
4K_wo_prefill, direction_mispredictions_do_not_stall: 0
4K_wo_prefill, branch_direction_stalls: 0
4K_wo_prefill, target_prediction_stalls: 0
4K_wo_prefill, target misprediction reason NOTB: 0
4K_wo_prefill, target misprediction reason DJMP: 0
4K_wo_prefill, target misprediction reason INDR: 0
4K_wo_prefill, target misprediction reason COND: 0
4K_wo_prefill, target misprediction reason DCLL: 0
4K_wo_prefill, target misprediction reason ICLL: 0
4K_wo_prefill, target misprediction reason RETN: 0
4K_wo_prefill, target misprediction reason OTHR: 0
4K_wo_prefill, target misprediction reason EXCB: 0
4K_wo_prefill, target match reason NOTB: 0
4K_wo_prefill, target match reason DJMP: 0
4K_wo_prefill, target match reason INDR: 0
4K_wo_prefill, target match reason COND: 0
4K_wo_prefill, target match reason DCLL: 0
4K_wo_prefill, target match reason ICLL: 0
4K_wo_prefill, target match reason RETN: 0
4K_wo_prefill, target match reason OTHR: 0
4K_wo_prefill, target match reason EXCB: 0
4K_wo_prefill, num_of_hash_conflicts: 0
4K_wo_prefill, num_of_block_lookups: 0



SHEET
4K_with_prefill, num_of_lookups: 0
4K_with_prefill, num_of_updates: 0
4K_with_prefill, num_of_predecodes: 0
4K_with_prefill, num_of_hits: 0
4K_with_prefill, num_of_misses: 0
4K_with_prefill, hit rate: -nan
4K_with_prefill, num_of_hits_demand: 0
4K_with_prefill, num_of_misses_demand: 0
4K_with_prefill, hit rate demand: -nan
4K_with_prefill, num_of_hits_prefill: 0
4K_with_prefill, num_of_misses_prefill: 0
4K_with_prefill, hit rate prefill: -nan
4K_with_prefill, num_of_hits_wrong_path: 0
4K_with_prefill, num_of_misses_wrong_path: 0
4K_with_prefill, btb_miss_stalls: 0
4K_with_prefill, btb_miss_not_stalls: 0
4K_with_prefill, direction_mispredictions_do_not_stall: 0
4K_with_prefill, branch_direction_stalls: 0
4K_with_prefill, target_prediction_stalls: 0
4K_with_prefill, target misprediction reason NOTB: 0
4K_with_prefill, target misprediction reason DJMP: 0
4K_with_prefill, target misprediction reason INDR: 0
4K_with_prefill, target misprediction reason COND: 0
4K_with_prefill, target misprediction reason DCLL: 0
4K_with_prefill, target misprediction reason ICLL: 0
4K_with_prefill, target misprediction reason RETN: 0
4K_with_prefill, target misprediction reason OTHR: 0
4K_with_prefill, target misprediction reason EXCB: 0
4K_with_prefill, target match reason NOTB: 0
4K_with_prefill, target match reason DJMP: 0
4K_with_prefill, target match reason INDR: 0
4K_with_prefill, target match reason COND: 0
4K_with_prefill, target match reason DCLL: 0
4K_with_prefill, target match reason ICLL: 0
4K_with_prefill, target match reason RETN: 0
4K_with_prefill, target match reason OTHR: 0
4K_with_prefill, target match reason EXCB: 0
4K_with_prefill, num_of_hash_conflicts: 0
4K_with_prefill, num_of_block_lookups: 0



SHEET
8K_wo_prefill, num_of_lookups: 0
8K_wo_prefill, num_of_updates: 0
8K_wo_prefill, num_of_predecodes: 0
8K_wo_prefill, num_of_hits: 0
8K_wo_prefill, num_of_misses: 0
8K_wo_prefill, hit rate: -nan
8K_wo_prefill, num_of_hits_demand: 0
8K_wo_prefill, num_of_misses_demand: 0
8K_wo_prefill, hit rate demand: -nan
8K_wo_prefill, num_of_hits_prefill: 0
8K_wo_prefill, num_of_misses_prefill: 0
8K_wo_prefill, hit rate prefill: -nan
8K_wo_prefill, num_of_hits_wrong_path: 0
8K_wo_prefill, num_of_misses_wrong_path: 0
8K_wo_prefill, btb_miss_stalls: 0
8K_wo_prefill, btb_miss_not_stalls: 0
8K_wo_prefill, direction_mispredictions_do_not_stall: 0
8K_wo_prefill, branch_direction_stalls: 0
8K_wo_prefill, target_prediction_stalls: 0
8K_wo_prefill, target misprediction reason NOTB: 0
8K_wo_prefill, target misprediction reason DJMP: 0
8K_wo_prefill, target misprediction reason INDR: 0
8K_wo_prefill, target misprediction reason COND: 0
8K_wo_prefill, target misprediction reason DCLL: 0
8K_wo_prefill, target misprediction reason ICLL: 0
8K_wo_prefill, target misprediction reason RETN: 0
8K_wo_prefill, target misprediction reason OTHR: 0
8K_wo_prefill, target misprediction reason EXCB: 0
8K_wo_prefill, target match reason NOTB: 0
8K_wo_prefill, target match reason DJMP: 0
8K_wo_prefill, target match reason INDR: 0
8K_wo_prefill, target match reason COND: 0
8K_wo_prefill, target match reason DCLL: 0
8K_wo_prefill, target match reason ICLL: 0
8K_wo_prefill, target match reason RETN: 0
8K_wo_prefill, target match reason OTHR: 0
8K_wo_prefill, target match reason EXCB: 0
8K_wo_prefill, num_of_hash_conflicts: 0
8K_wo_prefill, num_of_block_lookups: 0



SHEET
8K_with_prefill, num_of_lookups: 0
8K_with_prefill, num_of_updates: 0
8K_with_prefill, num_of_predecodes: 0
8K_with_prefill, num_of_hits: 0
8K_with_prefill, num_of_misses: 0
8K_with_prefill, hit rate: -nan
8K_with_prefill, num_of_hits_demand: 0
8K_with_prefill, num_of_misses_demand: 0
8K_with_prefill, hit rate demand: -nan
8K_with_prefill, num_of_hits_prefill: 0
8K_with_prefill, num_of_misses_prefill: 0
8K_with_prefill, hit rate prefill: -nan
8K_with_prefill, num_of_hits_wrong_path: 0
8K_with_prefill, num_of_misses_wrong_path: 0
8K_with_prefill, btb_miss_stalls: 0
8K_with_prefill, btb_miss_not_stalls: 0
8K_with_prefill, direction_mispredictions_do_not_stall: 0
8K_with_prefill, branch_direction_stalls: 0
8K_with_prefill, target_prediction_stalls: 0
8K_with_prefill, target misprediction reason NOTB: 0
8K_with_prefill, target misprediction reason DJMP: 0
8K_with_prefill, target misprediction reason INDR: 0
8K_with_prefill, target misprediction reason COND: 0
8K_with_prefill, target misprediction reason DCLL: 0
8K_with_prefill, target misprediction reason ICLL: 0
8K_with_prefill, target misprediction reason RETN: 0
8K_with_prefill, target misprediction reason OTHR: 0
8K_with_prefill, target misprediction reason EXCB: 0
8K_with_prefill, target match reason NOTB: 0
8K_with_prefill, target match reason DJMP: 0
8K_with_prefill, target match reason INDR: 0
8K_with_prefill, target match reason COND: 0
8K_with_prefill, target match reason DCLL: 0
8K_with_prefill, target match reason ICLL: 0
8K_with_prefill, target match reason RETN: 0
8K_with_prefill, target match reason OTHR: 0
8K_with_prefill, target match reason EXCB: 0
8K_with_prefill, num_of_hash_conflicts: 0
8K_with_prefill, num_of_block_lookups: 0



SHEET
16K_wo_prefill, num_of_lookups: 0
16K_wo_prefill, num_of_updates: 0
16K_wo_prefill, num_of_predecodes: 0
16K_wo_prefill, num_of_hits: 0
16K_wo_prefill, num_of_misses: 0
16K_wo_prefill, hit rate: -nan
16K_wo_prefill, num_of_hits_demand: 0
16K_wo_prefill, num_of_misses_demand: 0
16K_wo_prefill, hit rate demand: -nan
16K_wo_prefill, num_of_hits_prefill: 0
16K_wo_prefill, num_of_misses_prefill: 0
16K_wo_prefill, hit rate prefill: -nan
16K_wo_prefill, num_of_hits_wrong_path: 0
16K_wo_prefill, num_of_misses_wrong_path: 0
16K_wo_prefill, btb_miss_stalls: 0
16K_wo_prefill, btb_miss_not_stalls: 0
16K_wo_prefill, direction_mispredictions_do_not_stall: 0
16K_wo_prefill, branch_direction_stalls: 0
16K_wo_prefill, target_prediction_stalls: 0
16K_wo_prefill, target misprediction reason NOTB: 0
16K_wo_prefill, target misprediction reason DJMP: 0
16K_wo_prefill, target misprediction reason INDR: 0
16K_wo_prefill, target misprediction reason COND: 0
16K_wo_prefill, target misprediction reason DCLL: 0
16K_wo_prefill, target misprediction reason ICLL: 0
16K_wo_prefill, target misprediction reason RETN: 0
16K_wo_prefill, target misprediction reason OTHR: 0
16K_wo_prefill, target misprediction reason EXCB: 0
16K_wo_prefill, target match reason NOTB: 0
16K_wo_prefill, target match reason DJMP: 0
16K_wo_prefill, target match reason INDR: 0
16K_wo_prefill, target match reason COND: 0
16K_wo_prefill, target match reason DCLL: 0
16K_wo_prefill, target match reason ICLL: 0
16K_wo_prefill, target match reason RETN: 0
16K_wo_prefill, target match reason OTHR: 0
16K_wo_prefill, target match reason EXCB: 0
16K_wo_prefill, num_of_hash_conflicts: 0
16K_wo_prefill, num_of_block_lookups: 0



SHEET
16K_with_prefill, num_of_lookups: 0
16K_with_prefill, num_of_updates: 0
16K_with_prefill, num_of_predecodes: 0
16K_with_prefill, num_of_hits: 0
16K_with_prefill, num_of_misses: 0
16K_with_prefill, hit rate: -nan
16K_with_prefill, num_of_hits_demand: 0
16K_with_prefill, num_of_misses_demand: 0
16K_with_prefill, hit rate demand: -nan
16K_with_prefill, num_of_hits_prefill: 0
16K_with_prefill, num_of_misses_prefill: 0
16K_with_prefill, hit rate prefill: -nan
16K_with_prefill, num_of_hits_wrong_path: 0
16K_with_prefill, num_of_misses_wrong_path: 0
16K_with_prefill, btb_miss_stalls: 0
16K_with_prefill, btb_miss_not_stalls: 0
16K_with_prefill, direction_mispredictions_do_not_stall: 0
16K_with_prefill, branch_direction_stalls: 0
16K_with_prefill, target_prediction_stalls: 0
16K_with_prefill, target misprediction reason NOTB: 0
16K_with_prefill, target misprediction reason DJMP: 0
16K_with_prefill, target misprediction reason INDR: 0
16K_with_prefill, target misprediction reason COND: 0
16K_with_prefill, target misprediction reason DCLL: 0
16K_with_prefill, target misprediction reason ICLL: 0
16K_with_prefill, target misprediction reason RETN: 0
16K_with_prefill, target misprediction reason OTHR: 0
16K_with_prefill, target misprediction reason EXCB: 0
16K_with_prefill, target match reason NOTB: 0
16K_with_prefill, target match reason DJMP: 0
16K_with_prefill, target match reason INDR: 0
16K_with_prefill, target match reason COND: 0
16K_with_prefill, target match reason DCLL: 0
16K_with_prefill, target match reason ICLL: 0
16K_with_prefill, target match reason RETN: 0
16K_with_prefill, target match reason OTHR: 0
16K_with_prefill, target match reason EXCB: 0
16K_with_prefill, num_of_hash_conflicts: 0
16K_with_prefill, num_of_block_lookups: 0



SHEET
32K_wo_prefill, num_of_lookups: 0
32K_wo_prefill, num_of_updates: 0
32K_wo_prefill, num_of_predecodes: 0
32K_wo_prefill, num_of_hits: 0
32K_wo_prefill, num_of_misses: 0
32K_wo_prefill, hit rate: -nan
32K_wo_prefill, num_of_hits_demand: 0
32K_wo_prefill, num_of_misses_demand: 0
32K_wo_prefill, hit rate demand: -nan
32K_wo_prefill, num_of_hits_prefill: 0
32K_wo_prefill, num_of_misses_prefill: 0
32K_wo_prefill, hit rate prefill: -nan
32K_wo_prefill, num_of_hits_wrong_path: 0
32K_wo_prefill, num_of_misses_wrong_path: 0
32K_wo_prefill, btb_miss_stalls: 0
32K_wo_prefill, btb_miss_not_stalls: 0
32K_wo_prefill, direction_mispredictions_do_not_stall: 0
32K_wo_prefill, branch_direction_stalls: 0
32K_wo_prefill, target_prediction_stalls: 0
32K_wo_prefill, target misprediction reason NOTB: 0
32K_wo_prefill, target misprediction reason DJMP: 0
32K_wo_prefill, target misprediction reason INDR: 0
32K_wo_prefill, target misprediction reason COND: 0
32K_wo_prefill, target misprediction reason DCLL: 0
32K_wo_prefill, target misprediction reason ICLL: 0
32K_wo_prefill, target misprediction reason RETN: 0
32K_wo_prefill, target misprediction reason OTHR: 0
32K_wo_prefill, target misprediction reason EXCB: 0
32K_wo_prefill, target match reason NOTB: 0
32K_wo_prefill, target match reason DJMP: 0
32K_wo_prefill, target match reason INDR: 0
32K_wo_prefill, target match reason COND: 0
32K_wo_prefill, target match reason DCLL: 0
32K_wo_prefill, target match reason ICLL: 0
32K_wo_prefill, target match reason RETN: 0
32K_wo_prefill, target match reason OTHR: 0
32K_wo_prefill, target match reason EXCB: 0
32K_wo_prefill, num_of_hash_conflicts: 0
32K_wo_prefill, num_of_block_lookups: 0



SHEET
32K_with_prefill, num_of_lookups: 0
32K_with_prefill, num_of_updates: 0
32K_with_prefill, num_of_predecodes: 0
32K_with_prefill, num_of_hits: 0
32K_with_prefill, num_of_misses: 0
32K_with_prefill, hit rate: -nan
32K_with_prefill, num_of_hits_demand: 0
32K_with_prefill, num_of_misses_demand: 0
32K_with_prefill, hit rate demand: -nan
32K_with_prefill, num_of_hits_prefill: 0
32K_with_prefill, num_of_misses_prefill: 0
32K_with_prefill, hit rate prefill: -nan
32K_with_prefill, num_of_hits_wrong_path: 0
32K_with_prefill, num_of_misses_wrong_path: 0
32K_with_prefill, btb_miss_stalls: 0
32K_with_prefill, btb_miss_not_stalls: 0
32K_with_prefill, direction_mispredictions_do_not_stall: 0
32K_with_prefill, branch_direction_stalls: 0
32K_with_prefill, target_prediction_stalls: 0
32K_with_prefill, target misprediction reason NOTB: 0
32K_with_prefill, target misprediction reason DJMP: 0
32K_with_prefill, target misprediction reason INDR: 0
32K_with_prefill, target misprediction reason COND: 0
32K_with_prefill, target misprediction reason DCLL: 0
32K_with_prefill, target misprediction reason ICLL: 0
32K_with_prefill, target misprediction reason RETN: 0
32K_with_prefill, target misprediction reason OTHR: 0
32K_with_prefill, target misprediction reason EXCB: 0
32K_with_prefill, target match reason NOTB: 0
32K_with_prefill, target match reason DJMP: 0
32K_with_prefill, target match reason INDR: 0
32K_with_prefill, target match reason COND: 0
32K_with_prefill, target match reason DCLL: 0
32K_with_prefill, target match reason ICLL: 0
32K_with_prefill, target match reason RETN: 0
32K_with_prefill, target match reason OTHR: 0
32K_with_prefill, target match reason EXCB: 0
32K_with_prefill, num_of_hash_conflicts: 0
32K_with_prefill, num_of_block_lookups: 0



SHEET
Confluence_BTB, num_of_lookups: 0
Confluence_BTB, num_of_updates: 0
Confluence_BTB, num_of_predecodes: 0
Confluence_BTB, num_of_hits: 0
Confluence_BTB, num_of_misses: 0
Confluence_BTB, hit rate: -nan
Confluence_BTB, num_of_hits_demand: 0
Confluence_BTB, num_of_misses_demand: 0
Confluence_BTB, hit rate demand: -nan
Confluence_BTB, num_of_hits_prefill: 0
Confluence_BTB, num_of_misses_prefill: 0
Confluence_BTB, hit rate prefill: -nan
Confluence_BTB, num_of_hits_wrong_path: 0
Confluence_BTB, num_of_misses_wrong_path: 0
Confluence_BTB, btb_miss_stalls: 0
Confluence_BTB, btb_miss_not_stalls: 0
Confluence_BTB, direction_mispredictions_do_not_stall: 0
Confluence_BTB, branch_direction_stalls: 0
Confluence_BTB, target_prediction_stalls: 0
Confluence_BTB, target misprediction reason NOTB: 0
Confluence_BTB, target misprediction reason DJMP: 0
Confluence_BTB, target misprediction reason INDR: 0
Confluence_BTB, target misprediction reason COND: 0
Confluence_BTB, target misprediction reason DCLL: 0
Confluence_BTB, target misprediction reason ICLL: 0
Confluence_BTB, target misprediction reason RETN: 0
Confluence_BTB, target misprediction reason OTHR: 0
Confluence_BTB, target misprediction reason EXCB: 0
Confluence_BTB, target match reason NOTB: 0
Confluence_BTB, target match reason DJMP: 0
Confluence_BTB, target match reason INDR: 0
Confluence_BTB, target match reason COND: 0
Confluence_BTB, target match reason DCLL: 0
Confluence_BTB, target match reason ICLL: 0
Confluence_BTB, target match reason RETN: 0
Confluence_BTB, target match reason OTHR: 0
Confluence_BTB, target match reason EXCB: 0



SHEET
2K_sn4l_BTB, num_of_lookups: 8188767
2K_sn4l_BTB, num_of_updates: 439591
2K_sn4l_BTB, num_of_predecodes: 10227237
2K_sn4l_BTB, num_of_updates_pb: 8303933
2K_sn4l_BTB, num_of_hits: 7390568
2K_sn4l_BTB, num_of_misses: 798199
2K_sn4l_BTB, hit rate: 0.902525
2K_sn4l_BTB, num_of_hits_demand: 7390568
2K_sn4l_BTB, num_of_misses_demand: 798199
2K_sn4l_BTB, hit rate demand: 0.902525
2K_sn4l_BTB, num_of_hits_prefill: 0
2K_sn4l_BTB, num_of_misses_prefill: 0
2K_sn4l_BTB, hit rate prefill: -nan
2K_sn4l_BTB, num_of_hits_wrong_path: 0
2K_sn4l_BTB, num_of_misses_wrong_path: 0
2K_sn4l_BTB, btb_miss_stalls: 125373
2K_sn4l_BTB, btb_miss_not_stalls: 672826
2K_sn4l_BTB, direction_mispredictions_do_not_stall: 1136
2K_sn4l_BTB, branch_direction_stalls: 11655
2K_sn4l_BTB, target_prediction_stalls: 29801
2K_sn4l_BTB, target misprediction reason NOTB: 0
2K_sn4l_BTB, target misprediction reason DJMP: 6
2K_sn4l_BTB, target misprediction reason INDR: 0
2K_sn4l_BTB, target misprediction reason COND: 420
2K_sn4l_BTB, target misprediction reason DCLL: 14
2K_sn4l_BTB, target misprediction reason ICLL: 29359
2K_sn4l_BTB, target misprediction reason RETN: 2
2K_sn4l_BTB, target misprediction reason OTHR: 0
2K_sn4l_BTB, target misprediction reason EXCB: 0
2K_sn4l_BTB, target match reason NOTB: 0
2K_sn4l_BTB, target match reason DJMP: 427003
2K_sn4l_BTB, target match reason INDR: 47775
2K_sn4l_BTB, target match reason COND: 5125262
2K_sn4l_BTB, target match reason DCLL: 739573
2K_sn4l_BTB, target match reason ICLL: 114359
2K_sn4l_BTB, target match reason RETN: 894004
2K_sn4l_BTB, target match reason OTHR: 0
2K_sn4l_BTB, target match reason EXCB: 0



SHEET
branches: 6075


SHEET
2K_wo_prefill btb_miss_stalls: 0
2K_wo_prefill branch_direction_stalls: 0
2K_wo_prefill target_prediction_stalls: 0
2K_with_prefill btb_miss_stalls: 0
2K_with_prefill branch_direction_stalls: 0
2K_with_prefill target_prediction_stalls: 0
4K_wo_prefill btb_miss_stalls: 0
4K_wo_prefill branch_direction_stalls: 0
4K_wo_prefill target_prediction_stalls: 0
4K_with_prefill btb_miss_stalls: 0
4K_with_prefill branch_direction_stalls: 0
4K_with_prefill target_prediction_stalls: 0
8K_wo_prefill btb_miss_stalls: 0
8K_wo_prefill branch_direction_stalls: 0
8K_wo_prefill target_prediction_stalls: 0
8K_with_prefill btb_miss_stalls: 0
8K_with_prefill branch_direction_stalls: 0
8K_with_prefill target_prediction_stalls: 0
16K_wo_prefill btb_miss_stalls: 0
16K_wo_prefill branch_direction_stalls: 0
16K_wo_prefill target_prediction_stalls: 0
16K_with_prefill btb_miss_stalls: 0
16K_with_prefill branch_direction_stalls: 0
16K_with_prefill target_prediction_stalls: 0
32K_wo_prefill btb_miss_stalls: 0
32K_wo_prefill branch_direction_stalls: 0
32K_wo_prefill target_prediction_stalls: 0
32K_with_prefill btb_miss_stalls: 0
32K_with_prefill branch_direction_stalls: 0
32K_with_prefill target_prediction_stalls: 0
Confluence_BTB btb_miss_stalls: 0
Confluence_BTB branch_direction_stalls: 0
Confluence_BTB target_prediction_stalls: 0
2K_sn4l_BTB btb_miss_stalls: 2.50746
2K_sn4l_BTB branch_direction_stalls: 0.2331
2K_sn4l_BTB target_prediction_stalls: 0.59602



CPU 0 L1D next line prefetcher final stats

DRAM Statistics
 CHANNEL 0
 RQ ROW_BUFFER_HIT:     390135  ROW_BUFFER_MISS:     983608
 DBUS_CONGESTED:    1405563
 WQ ROW_BUFFER_HIT:     281765  ROW_BUFFER_MISS:     617621  FULL:          0

 AVG_CONGESTED_CYCLE: 6

CPU 0 Branch Prediction Accuracy: 99.8317% MPKI: 0.27564 Average ROB Occupancy at Mispredict: 208.704

Branch types
NOT_BRANCH: 41811143 83.6223%
BRANCH_DIRECT_JUMP: 445742 0.891484%
BRANCH_INDIRECT: 48876 0.097752%
BRANCH_CONDITIONAL: 5859406 11.7188%
BRANCH_DIRECT_CALL: 758268 1.51654%
BRANCH_INDIRECT_CALL: 159103 0.318206%
BRANCH_RETURN: 917372 1.83474%
BRANCH_OTHER: 0 0%

