Initialize SIGNATURE TABLE
ST_SET: 1
ST_WAY: 256
ST_TAG_BIT: 16
ST_TAG_MASK: ffff

Initialize PATTERN TABLE
PT_SET: 512
PT_WAY: 4
SIG_DELTA_BIT: 7
C_SIG_BIT: 4
C_DELTA_BIT: 4

Initialize PREFETCH FILTER
FILTER_SET: 1024

*** ChampSim Multicore Out-of-Order Simulator ***

Warmup Instructions: 50000000
Simulation Instructions: 50000000
Number of CPUs: 1
LLC sets: 2048
LLC ways: 16
Off-chip DRAM Size: 4096 MB Channels: 1 Width: 64-bit Data Rate: 3200 MT/s

CPU 0 runs /home/ansari/ipc1_public//client_005.champsimtrace.xz
CPU 0 L1D next line prefetcher
Heartbeat CPU 0 instructions: 10000001 cycles: 3293749 heartbeat IPC: 3.03605 cumulative IPC: 3.03605 (Simulation time: 0 hr 0 min 37 sec) 
Heartbeat CPU 0 instructions: 20000002 cycles: 6701248 heartbeat IPC: 2.9347 cumulative IPC: 2.98452 (Simulation time: 0 hr 1 min 20 sec) 
Heartbeat CPU 0 instructions: 30000001 cycles: 10394706 heartbeat IPC: 2.70749 cumulative IPC: 2.88608 (Simulation time: 0 hr 2 min 27 sec) 
Heartbeat CPU 0 instructions: 40000000 cycles: 14072624 heartbeat IPC: 2.71893 cumulative IPC: 2.8424 (Simulation time: 0 hr 3 min 33 sec) 
Heartbeat CPU 0 instructions: 50000001 cycles: 17346617 heartbeat IPC: 3.05437 cumulative IPC: 2.88241 (Simulation time: 0 hr 4 min 34 sec) 

Warmup complete CPU 0 instructions: 50000001 cycles: 17346617 (Simulation time: 0 hr 4 min 34 sec) 

Heartbeat CPU 0 instructions: 60000002 cycles: 25055610 heartbeat IPC: 1.29719 cumulative IPC: 1.29719 (Simulation time: 0 hr 5 min 32 sec) 
Heartbeat CPU 0 instructions: 70000003 cycles: 32405638 heartbeat IPC: 1.36054 cumulative IPC: 1.32811 (Simulation time: 0 hr 6 min 33 sec) 
Heartbeat CPU 0 instructions: 80000001 cycles: 39357558 heartbeat IPC: 1.43845 cumulative IPC: 1.36296 (Simulation time: 0 hr 7 min 36 sec) 
Heartbeat CPU 0 instructions: 90000002 cycles: 48926866 heartbeat IPC: 1.04501 cumulative IPC: 1.26661 (Simulation time: 0 hr 8 min 42 sec) 
Heartbeat CPU 0 instructions: 100000002 cycles: 56595708 heartbeat IPC: 1.30398 cumulative IPC: 1.27391 (Simulation time: 0 hr 9 min 35 sec) 
Finished CPU 0 instructions: 50000001 cycles: 39249091 cumulative IPC: 1.27391 (Simulation time: 0 hr 9 min 35 sec) 


SHEET
IPC: 1.27391


ChampSim completed all CPUs

Region of Interest Statistics

CPU 0 cumulative IPC: 1.27391 instructions: 50000001 cycles: 39249091
L1D TOTAL     ACCESS:   19746211  HIT:   19210366  MISS:     535845
L1D LOAD      ACCESS:    6703302  HIT:    6531597  MISS:     171705
L1D RFO       ACCESS:    6794950  HIT:    6610490  MISS:     184460
L1D PREFETCH  ACCESS:    6247959  HIT:    6068279  MISS:     179680
L1D WRITEBACK ACCESS:          0  HIT:          0  MISS:          0
L1D PREFETCH  REQUESTED:    6727364  ISSUED:    6355964  USEFUL:      59476  USELESS:     120091
L1D AVERAGE MISS LATENCY: 94.4572 cycles
L1I TOTAL     ACCESS:   15885749  HIT:   14611729  MISS:    1274020
L1I LOAD      ACCESS:    9315187  HIT:    9030742  MISS:     284445
L1I RFO       ACCESS:          0  HIT:          0  MISS:          0
L1I PREFETCH  ACCESS:    6570562  HIT:    5580987  MISS:     989575
L1I WRITEBACK ACCESS:          0  HIT:          0  MISS:          0
L1I PREFETCH  REQUESTED:    9914397  ISSUED:    9268459  USEFUL:     553907  USELESS:     435592
L1I AVERAGE MISS LATENCY: 18.4615 cycles
L2C TOTAL     ACCESS:    2585018  HIT:    2195996  MISS:     389022
L2C LOAD      ACCESS:     368854  HIT:     281452  MISS:      87402
L2C RFO       ACCESS:     180742  HIT:      31120  MISS:     149622
L2C PREFETCH  ACCESS:    1782385  HIT:    1631902  MISS:     150483
L2C WRITEBACK ACCESS:     253037  HIT:     251522  MISS:       1515
L2C PREFETCH  REQUESTED:    1300769  ISSUED:    1300619  USEFUL:      20462  USELESS:     128372
L2C AVERAGE MISS LATENCY: 129.664 cycles
LLC TOTAL     ACCESS:     895632  HIT:     599121  MISS:     296511
LLC LOAD      ACCESS:      87394  HIT:      45769  MISS:      41625
LLC RFO       ACCESS:     149617  HIT:      16314  MISS:     133303
LLC PREFETCH  ACCESS:     458453  HIT:     337737  MISS:     120716
LLC WRITEBACK ACCESS:     200168  HIT:     199301  MISS:        867
LLC PREFETCH  REQUESTED:          0  ISSUED:          0  USEFUL:      24002  USELESS:      92542
LLC AVERAGE MISS LATENCY: 169.928 cycles
Major fault: 0 Minor fault: 6119



CPU 0 #distinct_blocks: 17000



DisTable SINGLE
total_freq: 196279
total_correct_predictions: 191034
total_wrong_predictions: 921
total_predictability: 191045
total_first_and_second_predictions: 196279



total circular correct: 191034
total circular wrong: 921



total_timely_predictions: 131825
total_untimely_predictions: 59209



dis_in_seq_region: 784	dis_out_of_sequential_region: 4450



histogram_num_of_dests 0: 7054
histogram_num_of_dests 1: 5234
histogram_num_of_dests 2: 0
histogram_num_of_dests 3: 0
histogram_num_of_dests 4: 0
histogram_num_of_dests 5: 0
histogram_num_of_dests 6: 0
histogram_num_of_dests 7: 0
histogram_num_of_dests 8: 0
histogram_num_of_dests 9: 0
total_single_destination: 5234
total_multiple_destination: 0



DisTable MULTIPLE
total_freq: 501601
total_correct_predictions: 356113
total_wrong_predictions: 143033
total_predictability: 492807
total_first_and_second_predictions: 433047



total circular correct: 356113
total circular wrong: 143033



total_timely_predictions: 246120
total_untimely_predictions: 109993



dis_in_seq_region: 667	dis_out_of_sequential_region: 8127



histogram_num_of_dests 0: 1249
histogram_num_of_dests 1: 1
histogram_num_of_dests 2: 1777
histogram_num_of_dests 3: 610
histogram_num_of_dests 4: 227
histogram_num_of_dests 5: 87
histogram_num_of_dests 6: 47
histogram_num_of_dests 7: 17
histogram_num_of_dests 8: 15
histogram_num_of_dests 9: 66
total_single_destination: 1
total_multiple_destination: 2846



sequential_1_misses: 328890
sequential_4_misses: 369227
discontinuity_misses: 245461
sequential_1_prefHits: 589690
sequential_4_prefHits 663108
discontinuity_prefHits: 364905



SeqTable
SeqTable matches: 35939481	conflicts: 125022



wrong_snl_table:
wrong_snl_table matches: 6928852	conflicts: 34052



DisTable1
num_of_hits: 226478	num_of_misses: 20203	num_of_evictions: 8974	num_of_ignored_dests: 12199
num_of_updates: 234482	internal_conflicts: 0	external_conflicts: 286



DisTable2
num_of_hits: 480894	num_of_misses: 0	num_of_evictions: 3454	num_of_ignored_dests: 290
num_of_updates: 480604	internal_conflicts: 49146	external_conflicts: 608



RLU_permit: 16033543
RLU_filter: 2805927



non_prefetched_miss_in_seq_region: 264875
non_prefetched_miss_in_Dis_region: 186221



update_history_entry_missed: 497578


SHEET
2K_wo_prefill, num_of_lookups: 0
2K_wo_prefill, num_of_updates: 0
2K_wo_prefill, num_of_predecodes: 0
2K_wo_prefill, num_of_hits: 0
2K_wo_prefill, num_of_misses: 0
2K_wo_prefill, hit rate: -nan
2K_wo_prefill, num_of_hits_demand: 0
2K_wo_prefill, num_of_misses_demand: 0
2K_wo_prefill, hit rate demand: -nan
2K_wo_prefill, num_of_hits_prefill: 0
2K_wo_prefill, num_of_misses_prefill: 0
2K_wo_prefill, hit rate prefill: -nan
2K_wo_prefill, num_of_hits_wrong_path: 0
2K_wo_prefill, num_of_misses_wrong_path: 0
2K_wo_prefill, btb_miss_stalls: 0
2K_wo_prefill, btb_miss_not_stalls: 0
2K_wo_prefill, direction_mispredictions_do_not_stall: 0
2K_wo_prefill, branch_direction_stalls: 0
2K_wo_prefill, target_prediction_stalls: 0
2K_wo_prefill, target misprediction reason NOTB: 0
2K_wo_prefill, target misprediction reason DJMP: 0
2K_wo_prefill, target misprediction reason INDR: 0
2K_wo_prefill, target misprediction reason COND: 0
2K_wo_prefill, target misprediction reason DCLL: 0
2K_wo_prefill, target misprediction reason ICLL: 0
2K_wo_prefill, target misprediction reason RETN: 0
2K_wo_prefill, target misprediction reason OTHR: 0
2K_wo_prefill, target misprediction reason EXCB: 0
2K_wo_prefill, target match reason NOTB: 0
2K_wo_prefill, target match reason DJMP: 0
2K_wo_prefill, target match reason INDR: 0
2K_wo_prefill, target match reason COND: 0
2K_wo_prefill, target match reason DCLL: 0
2K_wo_prefill, target match reason ICLL: 0
2K_wo_prefill, target match reason RETN: 0
2K_wo_prefill, target match reason OTHR: 0
2K_wo_prefill, target match reason EXCB: 0
2K_wo_prefill, num_of_hash_conflicts: 0
2K_wo_prefill, num_of_block_lookups: 0



SHEET
2K_with_prefill, num_of_lookups: 0
2K_with_prefill, num_of_updates: 0
2K_with_prefill, num_of_predecodes: 0
2K_with_prefill, num_of_hits: 0
2K_with_prefill, num_of_misses: 0
2K_with_prefill, hit rate: -nan
2K_with_prefill, num_of_hits_demand: 0
2K_with_prefill, num_of_misses_demand: 0
2K_with_prefill, hit rate demand: -nan
2K_with_prefill, num_of_hits_prefill: 0
2K_with_prefill, num_of_misses_prefill: 0
2K_with_prefill, hit rate prefill: -nan
2K_with_prefill, num_of_hits_wrong_path: 0
2K_with_prefill, num_of_misses_wrong_path: 0
2K_with_prefill, btb_miss_stalls: 0
2K_with_prefill, btb_miss_not_stalls: 0
2K_with_prefill, direction_mispredictions_do_not_stall: 0
2K_with_prefill, branch_direction_stalls: 0
2K_with_prefill, target_prediction_stalls: 0
2K_with_prefill, target misprediction reason NOTB: 0
2K_with_prefill, target misprediction reason DJMP: 0
2K_with_prefill, target misprediction reason INDR: 0
2K_with_prefill, target misprediction reason COND: 0
2K_with_prefill, target misprediction reason DCLL: 0
2K_with_prefill, target misprediction reason ICLL: 0
2K_with_prefill, target misprediction reason RETN: 0
2K_with_prefill, target misprediction reason OTHR: 0
2K_with_prefill, target misprediction reason EXCB: 0
2K_with_prefill, target match reason NOTB: 0
2K_with_prefill, target match reason DJMP: 0
2K_with_prefill, target match reason INDR: 0
2K_with_prefill, target match reason COND: 0
2K_with_prefill, target match reason DCLL: 0
2K_with_prefill, target match reason ICLL: 0
2K_with_prefill, target match reason RETN: 0
2K_with_prefill, target match reason OTHR: 0
2K_with_prefill, target match reason EXCB: 0
2K_with_prefill, num_of_hash_conflicts: 0
2K_with_prefill, num_of_block_lookups: 0



SHEET
4K_wo_prefill, num_of_lookups: 0
4K_wo_prefill, num_of_updates: 0
4K_wo_prefill, num_of_predecodes: 0
4K_wo_prefill, num_of_hits: 0
4K_wo_prefill, num_of_misses: 0
4K_wo_prefill, hit rate: -nan
4K_wo_prefill, num_of_hits_demand: 0
4K_wo_prefill, num_of_misses_demand: 0
4K_wo_prefill, hit rate demand: -nan
4K_wo_prefill, num_of_hits_prefill: 0
4K_wo_prefill, num_of_misses_prefill: 0
4K_wo_prefill, hit rate prefill: -nan
4K_wo_prefill, num_of_hits_wrong_path: 0
4K_wo_prefill, num_of_misses_wrong_path: 0
4K_wo_prefill, btb_miss_stalls: 0
4K_wo_prefill, btb_miss_not_stalls: 0
4K_wo_prefill, direction_mispredictions_do_not_stall: 0
4K_wo_prefill, branch_direction_stalls: 0
4K_wo_prefill, target_prediction_stalls: 0
4K_wo_prefill, target misprediction reason NOTB: 0
4K_wo_prefill, target misprediction reason DJMP: 0
4K_wo_prefill, target misprediction reason INDR: 0
4K_wo_prefill, target misprediction reason COND: 0
4K_wo_prefill, target misprediction reason DCLL: 0
4K_wo_prefill, target misprediction reason ICLL: 0
4K_wo_prefill, target misprediction reason RETN: 0
4K_wo_prefill, target misprediction reason OTHR: 0
4K_wo_prefill, target misprediction reason EXCB: 0
4K_wo_prefill, target match reason NOTB: 0
4K_wo_prefill, target match reason DJMP: 0
4K_wo_prefill, target match reason INDR: 0
4K_wo_prefill, target match reason COND: 0
4K_wo_prefill, target match reason DCLL: 0
4K_wo_prefill, target match reason ICLL: 0
4K_wo_prefill, target match reason RETN: 0
4K_wo_prefill, target match reason OTHR: 0
4K_wo_prefill, target match reason EXCB: 0
4K_wo_prefill, num_of_hash_conflicts: 0
4K_wo_prefill, num_of_block_lookups: 0



SHEET
4K_with_prefill, num_of_lookups: 0
4K_with_prefill, num_of_updates: 0
4K_with_prefill, num_of_predecodes: 0
4K_with_prefill, num_of_hits: 0
4K_with_prefill, num_of_misses: 0
4K_with_prefill, hit rate: -nan
4K_with_prefill, num_of_hits_demand: 0
4K_with_prefill, num_of_misses_demand: 0
4K_with_prefill, hit rate demand: -nan
4K_with_prefill, num_of_hits_prefill: 0
4K_with_prefill, num_of_misses_prefill: 0
4K_with_prefill, hit rate prefill: -nan
4K_with_prefill, num_of_hits_wrong_path: 0
4K_with_prefill, num_of_misses_wrong_path: 0
4K_with_prefill, btb_miss_stalls: 0
4K_with_prefill, btb_miss_not_stalls: 0
4K_with_prefill, direction_mispredictions_do_not_stall: 0
4K_with_prefill, branch_direction_stalls: 0
4K_with_prefill, target_prediction_stalls: 0
4K_with_prefill, target misprediction reason NOTB: 0
4K_with_prefill, target misprediction reason DJMP: 0
4K_with_prefill, target misprediction reason INDR: 0
4K_with_prefill, target misprediction reason COND: 0
4K_with_prefill, target misprediction reason DCLL: 0
4K_with_prefill, target misprediction reason ICLL: 0
4K_with_prefill, target misprediction reason RETN: 0
4K_with_prefill, target misprediction reason OTHR: 0
4K_with_prefill, target misprediction reason EXCB: 0
4K_with_prefill, target match reason NOTB: 0
4K_with_prefill, target match reason DJMP: 0
4K_with_prefill, target match reason INDR: 0
4K_with_prefill, target match reason COND: 0
4K_with_prefill, target match reason DCLL: 0
4K_with_prefill, target match reason ICLL: 0
4K_with_prefill, target match reason RETN: 0
4K_with_prefill, target match reason OTHR: 0
4K_with_prefill, target match reason EXCB: 0
4K_with_prefill, num_of_hash_conflicts: 0
4K_with_prefill, num_of_block_lookups: 0



SHEET
8K_wo_prefill, num_of_lookups: 0
8K_wo_prefill, num_of_updates: 0
8K_wo_prefill, num_of_predecodes: 0
8K_wo_prefill, num_of_hits: 0
8K_wo_prefill, num_of_misses: 0
8K_wo_prefill, hit rate: -nan
8K_wo_prefill, num_of_hits_demand: 0
8K_wo_prefill, num_of_misses_demand: 0
8K_wo_prefill, hit rate demand: -nan
8K_wo_prefill, num_of_hits_prefill: 0
8K_wo_prefill, num_of_misses_prefill: 0
8K_wo_prefill, hit rate prefill: -nan
8K_wo_prefill, num_of_hits_wrong_path: 0
8K_wo_prefill, num_of_misses_wrong_path: 0
8K_wo_prefill, btb_miss_stalls: 0
8K_wo_prefill, btb_miss_not_stalls: 0
8K_wo_prefill, direction_mispredictions_do_not_stall: 0
8K_wo_prefill, branch_direction_stalls: 0
8K_wo_prefill, target_prediction_stalls: 0
8K_wo_prefill, target misprediction reason NOTB: 0
8K_wo_prefill, target misprediction reason DJMP: 0
8K_wo_prefill, target misprediction reason INDR: 0
8K_wo_prefill, target misprediction reason COND: 0
8K_wo_prefill, target misprediction reason DCLL: 0
8K_wo_prefill, target misprediction reason ICLL: 0
8K_wo_prefill, target misprediction reason RETN: 0
8K_wo_prefill, target misprediction reason OTHR: 0
8K_wo_prefill, target misprediction reason EXCB: 0
8K_wo_prefill, target match reason NOTB: 0
8K_wo_prefill, target match reason DJMP: 0
8K_wo_prefill, target match reason INDR: 0
8K_wo_prefill, target match reason COND: 0
8K_wo_prefill, target match reason DCLL: 0
8K_wo_prefill, target match reason ICLL: 0
8K_wo_prefill, target match reason RETN: 0
8K_wo_prefill, target match reason OTHR: 0
8K_wo_prefill, target match reason EXCB: 0
8K_wo_prefill, num_of_hash_conflicts: 0
8K_wo_prefill, num_of_block_lookups: 0



SHEET
8K_with_prefill, num_of_lookups: 0
8K_with_prefill, num_of_updates: 0
8K_with_prefill, num_of_predecodes: 0
8K_with_prefill, num_of_hits: 0
8K_with_prefill, num_of_misses: 0
8K_with_prefill, hit rate: -nan
8K_with_prefill, num_of_hits_demand: 0
8K_with_prefill, num_of_misses_demand: 0
8K_with_prefill, hit rate demand: -nan
8K_with_prefill, num_of_hits_prefill: 0
8K_with_prefill, num_of_misses_prefill: 0
8K_with_prefill, hit rate prefill: -nan
8K_with_prefill, num_of_hits_wrong_path: 0
8K_with_prefill, num_of_misses_wrong_path: 0
8K_with_prefill, btb_miss_stalls: 0
8K_with_prefill, btb_miss_not_stalls: 0
8K_with_prefill, direction_mispredictions_do_not_stall: 0
8K_with_prefill, branch_direction_stalls: 0
8K_with_prefill, target_prediction_stalls: 0
8K_with_prefill, target misprediction reason NOTB: 0
8K_with_prefill, target misprediction reason DJMP: 0
8K_with_prefill, target misprediction reason INDR: 0
8K_with_prefill, target misprediction reason COND: 0
8K_with_prefill, target misprediction reason DCLL: 0
8K_with_prefill, target misprediction reason ICLL: 0
8K_with_prefill, target misprediction reason RETN: 0
8K_with_prefill, target misprediction reason OTHR: 0
8K_with_prefill, target misprediction reason EXCB: 0
8K_with_prefill, target match reason NOTB: 0
8K_with_prefill, target match reason DJMP: 0
8K_with_prefill, target match reason INDR: 0
8K_with_prefill, target match reason COND: 0
8K_with_prefill, target match reason DCLL: 0
8K_with_prefill, target match reason ICLL: 0
8K_with_prefill, target match reason RETN: 0
8K_with_prefill, target match reason OTHR: 0
8K_with_prefill, target match reason EXCB: 0
8K_with_prefill, num_of_hash_conflicts: 0
8K_with_prefill, num_of_block_lookups: 0



SHEET
16K_wo_prefill, num_of_lookups: 0
16K_wo_prefill, num_of_updates: 0
16K_wo_prefill, num_of_predecodes: 0
16K_wo_prefill, num_of_hits: 0
16K_wo_prefill, num_of_misses: 0
16K_wo_prefill, hit rate: -nan
16K_wo_prefill, num_of_hits_demand: 0
16K_wo_prefill, num_of_misses_demand: 0
16K_wo_prefill, hit rate demand: -nan
16K_wo_prefill, num_of_hits_prefill: 0
16K_wo_prefill, num_of_misses_prefill: 0
16K_wo_prefill, hit rate prefill: -nan
16K_wo_prefill, num_of_hits_wrong_path: 0
16K_wo_prefill, num_of_misses_wrong_path: 0
16K_wo_prefill, btb_miss_stalls: 0
16K_wo_prefill, btb_miss_not_stalls: 0
16K_wo_prefill, direction_mispredictions_do_not_stall: 0
16K_wo_prefill, branch_direction_stalls: 0
16K_wo_prefill, target_prediction_stalls: 0
16K_wo_prefill, target misprediction reason NOTB: 0
16K_wo_prefill, target misprediction reason DJMP: 0
16K_wo_prefill, target misprediction reason INDR: 0
16K_wo_prefill, target misprediction reason COND: 0
16K_wo_prefill, target misprediction reason DCLL: 0
16K_wo_prefill, target misprediction reason ICLL: 0
16K_wo_prefill, target misprediction reason RETN: 0
16K_wo_prefill, target misprediction reason OTHR: 0
16K_wo_prefill, target misprediction reason EXCB: 0
16K_wo_prefill, target match reason NOTB: 0
16K_wo_prefill, target match reason DJMP: 0
16K_wo_prefill, target match reason INDR: 0
16K_wo_prefill, target match reason COND: 0
16K_wo_prefill, target match reason DCLL: 0
16K_wo_prefill, target match reason ICLL: 0
16K_wo_prefill, target match reason RETN: 0
16K_wo_prefill, target match reason OTHR: 0
16K_wo_prefill, target match reason EXCB: 0
16K_wo_prefill, num_of_hash_conflicts: 0
16K_wo_prefill, num_of_block_lookups: 0



SHEET
16K_with_prefill, num_of_lookups: 0
16K_with_prefill, num_of_updates: 0
16K_with_prefill, num_of_predecodes: 0
16K_with_prefill, num_of_hits: 0
16K_with_prefill, num_of_misses: 0
16K_with_prefill, hit rate: -nan
16K_with_prefill, num_of_hits_demand: 0
16K_with_prefill, num_of_misses_demand: 0
16K_with_prefill, hit rate demand: -nan
16K_with_prefill, num_of_hits_prefill: 0
16K_with_prefill, num_of_misses_prefill: 0
16K_with_prefill, hit rate prefill: -nan
16K_with_prefill, num_of_hits_wrong_path: 0
16K_with_prefill, num_of_misses_wrong_path: 0
16K_with_prefill, btb_miss_stalls: 0
16K_with_prefill, btb_miss_not_stalls: 0
16K_with_prefill, direction_mispredictions_do_not_stall: 0
16K_with_prefill, branch_direction_stalls: 0
16K_with_prefill, target_prediction_stalls: 0
16K_with_prefill, target misprediction reason NOTB: 0
16K_with_prefill, target misprediction reason DJMP: 0
16K_with_prefill, target misprediction reason INDR: 0
16K_with_prefill, target misprediction reason COND: 0
16K_with_prefill, target misprediction reason DCLL: 0
16K_with_prefill, target misprediction reason ICLL: 0
16K_with_prefill, target misprediction reason RETN: 0
16K_with_prefill, target misprediction reason OTHR: 0
16K_with_prefill, target misprediction reason EXCB: 0
16K_with_prefill, target match reason NOTB: 0
16K_with_prefill, target match reason DJMP: 0
16K_with_prefill, target match reason INDR: 0
16K_with_prefill, target match reason COND: 0
16K_with_prefill, target match reason DCLL: 0
16K_with_prefill, target match reason ICLL: 0
16K_with_prefill, target match reason RETN: 0
16K_with_prefill, target match reason OTHR: 0
16K_with_prefill, target match reason EXCB: 0
16K_with_prefill, num_of_hash_conflicts: 0
16K_with_prefill, num_of_block_lookups: 0



SHEET
32K_wo_prefill, num_of_lookups: 0
32K_wo_prefill, num_of_updates: 0
32K_wo_prefill, num_of_predecodes: 0
32K_wo_prefill, num_of_hits: 0
32K_wo_prefill, num_of_misses: 0
32K_wo_prefill, hit rate: -nan
32K_wo_prefill, num_of_hits_demand: 0
32K_wo_prefill, num_of_misses_demand: 0
32K_wo_prefill, hit rate demand: -nan
32K_wo_prefill, num_of_hits_prefill: 0
32K_wo_prefill, num_of_misses_prefill: 0
32K_wo_prefill, hit rate prefill: -nan
32K_wo_prefill, num_of_hits_wrong_path: 0
32K_wo_prefill, num_of_misses_wrong_path: 0
32K_wo_prefill, btb_miss_stalls: 0
32K_wo_prefill, btb_miss_not_stalls: 0
32K_wo_prefill, direction_mispredictions_do_not_stall: 0
32K_wo_prefill, branch_direction_stalls: 0
32K_wo_prefill, target_prediction_stalls: 0
32K_wo_prefill, target misprediction reason NOTB: 0
32K_wo_prefill, target misprediction reason DJMP: 0
32K_wo_prefill, target misprediction reason INDR: 0
32K_wo_prefill, target misprediction reason COND: 0
32K_wo_prefill, target misprediction reason DCLL: 0
32K_wo_prefill, target misprediction reason ICLL: 0
32K_wo_prefill, target misprediction reason RETN: 0
32K_wo_prefill, target misprediction reason OTHR: 0
32K_wo_prefill, target misprediction reason EXCB: 0
32K_wo_prefill, target match reason NOTB: 0
32K_wo_prefill, target match reason DJMP: 0
32K_wo_prefill, target match reason INDR: 0
32K_wo_prefill, target match reason COND: 0
32K_wo_prefill, target match reason DCLL: 0
32K_wo_prefill, target match reason ICLL: 0
32K_wo_prefill, target match reason RETN: 0
32K_wo_prefill, target match reason OTHR: 0
32K_wo_prefill, target match reason EXCB: 0
32K_wo_prefill, num_of_hash_conflicts: 0
32K_wo_prefill, num_of_block_lookups: 0



SHEET
32K_with_prefill, num_of_lookups: 0
32K_with_prefill, num_of_updates: 0
32K_with_prefill, num_of_predecodes: 0
32K_with_prefill, num_of_hits: 0
32K_with_prefill, num_of_misses: 0
32K_with_prefill, hit rate: -nan
32K_with_prefill, num_of_hits_demand: 0
32K_with_prefill, num_of_misses_demand: 0
32K_with_prefill, hit rate demand: -nan
32K_with_prefill, num_of_hits_prefill: 0
32K_with_prefill, num_of_misses_prefill: 0
32K_with_prefill, hit rate prefill: -nan
32K_with_prefill, num_of_hits_wrong_path: 0
32K_with_prefill, num_of_misses_wrong_path: 0
32K_with_prefill, btb_miss_stalls: 0
32K_with_prefill, btb_miss_not_stalls: 0
32K_with_prefill, direction_mispredictions_do_not_stall: 0
32K_with_prefill, branch_direction_stalls: 0
32K_with_prefill, target_prediction_stalls: 0
32K_with_prefill, target misprediction reason NOTB: 0
32K_with_prefill, target misprediction reason DJMP: 0
32K_with_prefill, target misprediction reason INDR: 0
32K_with_prefill, target misprediction reason COND: 0
32K_with_prefill, target misprediction reason DCLL: 0
32K_with_prefill, target misprediction reason ICLL: 0
32K_with_prefill, target misprediction reason RETN: 0
32K_with_prefill, target misprediction reason OTHR: 0
32K_with_prefill, target misprediction reason EXCB: 0
32K_with_prefill, target match reason NOTB: 0
32K_with_prefill, target match reason DJMP: 0
32K_with_prefill, target match reason INDR: 0
32K_with_prefill, target match reason COND: 0
32K_with_prefill, target match reason DCLL: 0
32K_with_prefill, target match reason ICLL: 0
32K_with_prefill, target match reason RETN: 0
32K_with_prefill, target match reason OTHR: 0
32K_with_prefill, target match reason EXCB: 0
32K_with_prefill, num_of_hash_conflicts: 0
32K_with_prefill, num_of_block_lookups: 0



SHEET
Confluence_BTB, num_of_lookups: 0
Confluence_BTB, num_of_updates: 0
Confluence_BTB, num_of_predecodes: 0
Confluence_BTB, num_of_hits: 0
Confluence_BTB, num_of_misses: 0
Confluence_BTB, hit rate: -nan
Confluence_BTB, num_of_hits_demand: 0
Confluence_BTB, num_of_misses_demand: 0
Confluence_BTB, hit rate demand: -nan
Confluence_BTB, num_of_hits_prefill: 0
Confluence_BTB, num_of_misses_prefill: 0
Confluence_BTB, hit rate prefill: -nan
Confluence_BTB, num_of_hits_wrong_path: 0
Confluence_BTB, num_of_misses_wrong_path: 0
Confluence_BTB, btb_miss_stalls: 0
Confluence_BTB, btb_miss_not_stalls: 0
Confluence_BTB, direction_mispredictions_do_not_stall: 0
Confluence_BTB, branch_direction_stalls: 0
Confluence_BTB, target_prediction_stalls: 0
Confluence_BTB, target misprediction reason NOTB: 0
Confluence_BTB, target misprediction reason DJMP: 0
Confluence_BTB, target misprediction reason INDR: 0
Confluence_BTB, target misprediction reason COND: 0
Confluence_BTB, target misprediction reason DCLL: 0
Confluence_BTB, target misprediction reason ICLL: 0
Confluence_BTB, target misprediction reason RETN: 0
Confluence_BTB, target misprediction reason OTHR: 0
Confluence_BTB, target misprediction reason EXCB: 0
Confluence_BTB, target match reason NOTB: 0
Confluence_BTB, target match reason DJMP: 0
Confluence_BTB, target match reason INDR: 0
Confluence_BTB, target match reason COND: 0
Confluence_BTB, target match reason DCLL: 0
Confluence_BTB, target match reason ICLL: 0
Confluence_BTB, target match reason RETN: 0
Confluence_BTB, target match reason OTHR: 0
Confluence_BTB, target match reason EXCB: 0



SHEET
2K_sn4l_BTB, num_of_lookups: 9143368
2K_sn4l_BTB, num_of_updates: 492119
2K_sn4l_BTB, num_of_predecodes: 6855007
2K_sn4l_BTB, num_of_updates_pb: 5806152
2K_sn4l_BTB, num_of_hits: 8438760
2K_sn4l_BTB, num_of_misses: 704608
2K_sn4l_BTB, hit rate: 0.922938
2K_sn4l_BTB, num_of_hits_demand: 8438760
2K_sn4l_BTB, num_of_misses_demand: 704608
2K_sn4l_BTB, hit rate demand: 0.922938
2K_sn4l_BTB, num_of_hits_prefill: 0
2K_sn4l_BTB, num_of_misses_prefill: 0
2K_sn4l_BTB, hit rate prefill: -nan
2K_sn4l_BTB, num_of_hits_wrong_path: 0
2K_sn4l_BTB, num_of_misses_wrong_path: 0
2K_sn4l_BTB, btb_miss_stalls: 151632
2K_sn4l_BTB, btb_miss_not_stalls: 552976
2K_sn4l_BTB, direction_mispredictions_do_not_stall: 21648
2K_sn4l_BTB, branch_direction_stalls: 148286
2K_sn4l_BTB, target_prediction_stalls: 98046
2K_sn4l_BTB, target misprediction reason NOTB: 0
2K_sn4l_BTB, target misprediction reason DJMP: 910
2K_sn4l_BTB, target misprediction reason INDR: 38906
2K_sn4l_BTB, target misprediction reason COND: 6084
2K_sn4l_BTB, target misprediction reason DCLL: 1802
2K_sn4l_BTB, target misprediction reason ICLL: 26159
2K_sn4l_BTB, target misprediction reason RETN: 24185
2K_sn4l_BTB, target misprediction reason OTHR: 0
2K_sn4l_BTB, target misprediction reason EXCB: 0
2K_sn4l_BTB, target match reason NOTB: 0
2K_sn4l_BTB, target match reason DJMP: 462783
2K_sn4l_BTB, target match reason INDR: 40581
2K_sn4l_BTB, target match reason COND: 5462508
2K_sn4l_BTB, target match reason DCLL: 985144
2K_sn4l_BTB, target match reason ICLL: 100141
2K_sn4l_BTB, target match reason RETN: 1119623
2K_sn4l_BTB, target match reason OTHR: 0
2K_sn4l_BTB, target match reason EXCB: 0



SHEET
branches: 36649


SHEET
2K_wo_prefill btb_miss_stalls: 0
2K_wo_prefill branch_direction_stalls: 0
2K_wo_prefill target_prediction_stalls: 0
2K_with_prefill btb_miss_stalls: 0
2K_with_prefill branch_direction_stalls: 0
2K_with_prefill target_prediction_stalls: 0
4K_wo_prefill btb_miss_stalls: 0
4K_wo_prefill branch_direction_stalls: 0
4K_wo_prefill target_prediction_stalls: 0
4K_with_prefill btb_miss_stalls: 0
4K_with_prefill branch_direction_stalls: 0
4K_with_prefill target_prediction_stalls: 0
8K_wo_prefill btb_miss_stalls: 0
8K_wo_prefill branch_direction_stalls: 0
8K_wo_prefill target_prediction_stalls: 0
8K_with_prefill btb_miss_stalls: 0
8K_with_prefill branch_direction_stalls: 0
8K_with_prefill target_prediction_stalls: 0
16K_wo_prefill btb_miss_stalls: 0
16K_wo_prefill branch_direction_stalls: 0
16K_wo_prefill target_prediction_stalls: 0
16K_with_prefill btb_miss_stalls: 0
16K_with_prefill branch_direction_stalls: 0
16K_with_prefill target_prediction_stalls: 0
32K_wo_prefill btb_miss_stalls: 0
32K_wo_prefill branch_direction_stalls: 0
32K_wo_prefill target_prediction_stalls: 0
32K_with_prefill btb_miss_stalls: 0
32K_with_prefill branch_direction_stalls: 0
32K_with_prefill target_prediction_stalls: 0
Confluence_BTB btb_miss_stalls: 0
Confluence_BTB branch_direction_stalls: 0
Confluence_BTB target_prediction_stalls: 0
2K_sn4l_BTB btb_miss_stalls: 3.03264
2K_sn4l_BTB branch_direction_stalls: 2.96572
2K_sn4l_BTB target_prediction_stalls: 1.96092



CPU 0 L1D next line prefetcher final stats

DRAM Statistics
 CHANNEL 0
 RQ ROW_BUFFER_HIT:      97529  ROW_BUFFER_MISS:     198114
 DBUS_CONGESTED:     235482
 WQ ROW_BUFFER_HIT:      52507  ROW_BUFFER_MISS:     130273  FULL:          0

 AVG_CONGESTED_CYCLE: 6

CPU 0 Branch Prediction Accuracy: 97.8666% MPKI: 3.9013 Average ROB Occupancy at Mispredict: 84.2292

Branch types
NOT_BRANCH: 40856330 81.7127%
BRANCH_DIRECT_JUMP: 484667 0.969334%
BRANCH_INDIRECT: 85086 0.170172%
BRANCH_CONDITIONAL: 6230887 12.4618%
BRANCH_DIRECT_CALL: 1028917 2.05783%
BRANCH_INDIRECT_CALL: 141825 0.28365%
BRANCH_RETURN: 1171986 2.34397%
BRANCH_OTHER: 0 0%

