Initialize SIGNATURE TABLE
ST_SET: 1
ST_WAY: 256
ST_TAG_BIT: 16
ST_TAG_MASK: ffff

Initialize PATTERN TABLE
PT_SET: 512
PT_WAY: 4
SIG_DELTA_BIT: 7
C_SIG_BIT: 4
C_DELTA_BIT: 4

Initialize PREFETCH FILTER
FILTER_SET: 1024

*** ChampSim Multicore Out-of-Order Simulator ***

Warmup Instructions: 50000000
Simulation Instructions: 50000000
Number of CPUs: 1
LLC sets: 2048
LLC ways: 16
Off-chip DRAM Size: 4096 MB Channels: 1 Width: 64-bit Data Rate: 3200 MT/s

CPU 0 runs /home/ansari/ipc1_public//server_001.champsimtrace.xz
CPU 0 L1D next line prefetcher
Heartbeat CPU 0 instructions: 10000002 cycles: 3155467 heartbeat IPC: 3.1691 cumulative IPC: 3.1691 (Simulation time: 0 hr 0 min 32 sec) 
Heartbeat CPU 0 instructions: 20000000 cycles: 6370161 heartbeat IPC: 3.11072 cumulative IPC: 3.13964 (Simulation time: 0 hr 1 min 9 sec) 
Heartbeat CPU 0 instructions: 30000003 cycles: 9556597 heartbeat IPC: 3.1383 cumulative IPC: 3.13919 (Simulation time: 0 hr 2 min 7 sec) 
Heartbeat CPU 0 instructions: 40000002 cycles: 12764319 heartbeat IPC: 3.11748 cumulative IPC: 3.13374 (Simulation time: 0 hr 3 min 7 sec) 
Heartbeat CPU 0 instructions: 50000003 cycles: 15983791 heartbeat IPC: 3.1061 cumulative IPC: 3.12817 (Simulation time: 0 hr 4 min 7 sec) 

Warmup complete CPU 0 instructions: 50000003 cycles: 15983791 (Simulation time: 0 hr 4 min 7 sec) 

Heartbeat CPU 0 instructions: 60000000 cycles: 23307553 heartbeat IPC: 1.36542 cumulative IPC: 1.36542 (Simulation time: 0 hr 4 min 59 sec) 
Heartbeat CPU 0 instructions: 70000002 cycles: 30296042 heartbeat IPC: 1.43092 cumulative IPC: 1.3974 (Simulation time: 0 hr 5 min 53 sec) 
Heartbeat CPU 0 instructions: 80000002 cycles: 37301544 heartbeat IPC: 1.42745 cumulative IPC: 1.40728 (Simulation time: 0 hr 6 min 46 sec) 
Heartbeat CPU 0 instructions: 90000002 cycles: 44606473 heartbeat IPC: 1.36894 cumulative IPC: 1.39749 (Simulation time: 0 hr 7 min 39 sec) 
Heartbeat CPU 0 instructions: 100000003 cycles: 51534112 heartbeat IPC: 1.44349 cumulative IPC: 1.40646 (Simulation time: 0 hr 8 min 31 sec) 
Finished CPU 0 instructions: 50000000 cycles: 35550321 cumulative IPC: 1.40646 (Simulation time: 0 hr 8 min 31 sec) 


SHEET
IPC: 1.40646


ChampSim completed all CPUs

Region of Interest Statistics

CPU 0 cumulative IPC: 1.40646 instructions: 50000000 cycles: 35550321
L1D TOTAL     ACCESS:   17746128  HIT:   17234922  MISS:     511206
L1D LOAD      ACCESS:    6507377  HIT:    6303457  MISS:     203920
L1D RFO       ACCESS:    5057958  HIT:    4975407  MISS:      82551
L1D PREFETCH  ACCESS:    6180793  HIT:    5956058  MISS:     224735
L1D WRITEBACK ACCESS:          0  HIT:          0  MISS:          0
L1D PREFETCH  REQUESTED:    6536773  ISSUED:    6356967  USEFUL:     132866  USELESS:      91996
L1D AVERAGE MISS LATENCY: 94.5061 cycles
L1I TOTAL     ACCESS:   10597352  HIT:    9925181  MISS:     672171
L1I LOAD      ACCESS:    8215103  HIT:    8034858  MISS:     180245
L1I RFO       ACCESS:          0  HIT:          0  MISS:          0
L1I PREFETCH  ACCESS:    2382249  HIT:    1890323  MISS:     491926
L1I WRITEBACK ACCESS:          0  HIT:          0  MISS:          0
L1I PREFETCH  REQUESTED:    3108057  ISSUED:    3024790  USEFUL:     387590  USELESS:     104378
L1I AVERAGE MISS LATENCY: 30.4937 cycles
L2C TOTAL     ACCESS:    1807897  HIT:    1332898  MISS:     474999
L2C LOAD      ACCESS:     278347  HIT:     172357  MISS:     105990
L2C RFO       ACCESS:      80944  HIT:      10241  MISS:      70703
L2C PREFETCH  ACCESS:    1240748  HIT:     942850  MISS:     297898
L2C WRITEBACK ACCESS:     207858  HIT:     207450  MISS:        408
L2C PREFETCH  REQUESTED:    1531952  ISSUED:    1530534  USEFUL:      30641  USELESS:     266983
L2C AVERAGE MISS LATENCY: 122.804 cycles
LLC TOTAL     ACCESS:    1146691  HIT:     816734  MISS:     329957
LLC LOAD      ACCESS:     105893  HIT:      73373  MISS:      32520
LLC RFO       ACCESS:      70701  HIT:       7060  MISS:      63641
LLC PREFETCH  ACCESS:     802439  HIT:     568867  MISS:     233572
LLC WRITEBACK ACCESS:     167658  HIT:     167434  MISS:        224
LLC PREFETCH  REQUESTED:          0  ISSUED:          0  USEFUL:      28778  USELESS:     200431
LLC AVERAGE MISS LATENCY: 223.036 cycles
Major fault: 0 Minor fault: 16787



CPU 0 #distinct_blocks: 9265



DisTable SINGLE
total_freq: 133074
total_correct_predictions: 131161
total_wrong_predictions: 1368
total_predictability: 130749
total_first_and_second_predictions: 133074



total circular correct: 131161
total circular wrong: 1368



total_timely_predictions: 99149
total_untimely_predictions: 32012



dis_in_seq_region: 434	dis_out_of_sequential_region: 1891



histogram_num_of_dests 0: 9963
histogram_num_of_dests 1: 2325
histogram_num_of_dests 2: 0
histogram_num_of_dests 3: 0
histogram_num_of_dests 4: 0
histogram_num_of_dests 5: 0
histogram_num_of_dests 6: 0
histogram_num_of_dests 7: 0
histogram_num_of_dests 8: 0
histogram_num_of_dests 9: 0
total_single_destination: 2325
total_multiple_destination: 0



DisTable MULTIPLE
total_freq: 179804
total_correct_predictions: 133158
total_wrong_predictions: 45842
total_predictability: 177149
total_first_and_second_predictions: 146209



total circular correct: 133158
total circular wrong: 45842



total_timely_predictions: 91081
total_untimely_predictions: 42077



dis_in_seq_region: 249	dis_out_of_sequential_region: 2406



histogram_num_of_dests 0: 3077
histogram_num_of_dests 1: 10
histogram_num_of_dests 2: 692
histogram_num_of_dests 3: 189
histogram_num_of_dests 4: 75
histogram_num_of_dests 5: 18
histogram_num_of_dests 6: 12
histogram_num_of_dests 7: 7
histogram_num_of_dests 8: 4
histogram_num_of_dests 9: 12
total_single_destination: 10
total_multiple_destination: 1009



sequential_1_misses: 241391
sequential_4_misses: 253263
discontinuity_misses: 102595
sequential_1_prefHits: 594637
sequential_4_prefHits 626987
discontinuity_prefHits: 169367



SeqTable
SeqTable matches: 25016022	conflicts: 81234



wrong_snl_table:
wrong_snl_table matches: 2694225	conflicts: 36112



DisTable1
num_of_hits: 146043	num_of_misses: 5272	num_of_evictions: 3382	num_of_ignored_dests: 2621
num_of_updates: 148694	internal_conflicts: 0	external_conflicts: 68



DisTable2
num_of_hits: 165858	num_of_misses: 0	num_of_evictions: 989	num_of_ignored_dests: 132
num_of_updates: 165726	internal_conflicts: 12643	external_conflicts: 2



RLU_permit: 5372352
RLU_filter: 1777023



non_prefetched_miss_in_seq_region: 171736
non_prefetched_miss_in_Dis_region: 71508



update_history_entry_missed: 169017


SHEET
2K_wo_prefill, num_of_lookups: 0
2K_wo_prefill, num_of_updates: 0
2K_wo_prefill, num_of_predecodes: 0
2K_wo_prefill, num_of_hits: 0
2K_wo_prefill, num_of_misses: 0
2K_wo_prefill, hit rate: -nan
2K_wo_prefill, num_of_hits_demand: 0
2K_wo_prefill, num_of_misses_demand: 0
2K_wo_prefill, hit rate demand: -nan
2K_wo_prefill, num_of_hits_prefill: 0
2K_wo_prefill, num_of_misses_prefill: 0
2K_wo_prefill, hit rate prefill: -nan
2K_wo_prefill, num_of_hits_wrong_path: 0
2K_wo_prefill, num_of_misses_wrong_path: 0
2K_wo_prefill, btb_miss_stalls: 0
2K_wo_prefill, btb_miss_not_stalls: 0
2K_wo_prefill, direction_mispredictions_do_not_stall: 0
2K_wo_prefill, branch_direction_stalls: 0
2K_wo_prefill, target_prediction_stalls: 0
2K_wo_prefill, target misprediction reason NOTB: 0
2K_wo_prefill, target misprediction reason DJMP: 0
2K_wo_prefill, target misprediction reason INDR: 0
2K_wo_prefill, target misprediction reason COND: 0
2K_wo_prefill, target misprediction reason DCLL: 0
2K_wo_prefill, target misprediction reason ICLL: 0
2K_wo_prefill, target misprediction reason RETN: 0
2K_wo_prefill, target misprediction reason OTHR: 0
2K_wo_prefill, target misprediction reason EXCB: 0
2K_wo_prefill, target match reason NOTB: 0
2K_wo_prefill, target match reason DJMP: 0
2K_wo_prefill, target match reason INDR: 0
2K_wo_prefill, target match reason COND: 0
2K_wo_prefill, target match reason DCLL: 0
2K_wo_prefill, target match reason ICLL: 0
2K_wo_prefill, target match reason RETN: 0
2K_wo_prefill, target match reason OTHR: 0
2K_wo_prefill, target match reason EXCB: 0
2K_wo_prefill, num_of_hash_conflicts: 0
2K_wo_prefill, num_of_block_lookups: 0



SHEET
2K_with_prefill, num_of_lookups: 0
2K_with_prefill, num_of_updates: 0
2K_with_prefill, num_of_predecodes: 0
2K_with_prefill, num_of_hits: 0
2K_with_prefill, num_of_misses: 0
2K_with_prefill, hit rate: -nan
2K_with_prefill, num_of_hits_demand: 0
2K_with_prefill, num_of_misses_demand: 0
2K_with_prefill, hit rate demand: -nan
2K_with_prefill, num_of_hits_prefill: 0
2K_with_prefill, num_of_misses_prefill: 0
2K_with_prefill, hit rate prefill: -nan
2K_with_prefill, num_of_hits_wrong_path: 0
2K_with_prefill, num_of_misses_wrong_path: 0
2K_with_prefill, btb_miss_stalls: 0
2K_with_prefill, btb_miss_not_stalls: 0
2K_with_prefill, direction_mispredictions_do_not_stall: 0
2K_with_prefill, branch_direction_stalls: 0
2K_with_prefill, target_prediction_stalls: 0
2K_with_prefill, target misprediction reason NOTB: 0
2K_with_prefill, target misprediction reason DJMP: 0
2K_with_prefill, target misprediction reason INDR: 0
2K_with_prefill, target misprediction reason COND: 0
2K_with_prefill, target misprediction reason DCLL: 0
2K_with_prefill, target misprediction reason ICLL: 0
2K_with_prefill, target misprediction reason RETN: 0
2K_with_prefill, target misprediction reason OTHR: 0
2K_with_prefill, target misprediction reason EXCB: 0
2K_with_prefill, target match reason NOTB: 0
2K_with_prefill, target match reason DJMP: 0
2K_with_prefill, target match reason INDR: 0
2K_with_prefill, target match reason COND: 0
2K_with_prefill, target match reason DCLL: 0
2K_with_prefill, target match reason ICLL: 0
2K_with_prefill, target match reason RETN: 0
2K_with_prefill, target match reason OTHR: 0
2K_with_prefill, target match reason EXCB: 0
2K_with_prefill, num_of_hash_conflicts: 0
2K_with_prefill, num_of_block_lookups: 0



SHEET
4K_wo_prefill, num_of_lookups: 0
4K_wo_prefill, num_of_updates: 0
4K_wo_prefill, num_of_predecodes: 0
4K_wo_prefill, num_of_hits: 0
4K_wo_prefill, num_of_misses: 0
4K_wo_prefill, hit rate: -nan
4K_wo_prefill, num_of_hits_demand: 0
4K_wo_prefill, num_of_misses_demand: 0
4K_wo_prefill, hit rate demand: -nan
4K_wo_prefill, num_of_hits_prefill: 0
4K_wo_prefill, num_of_misses_prefill: 0
4K_wo_prefill, hit rate prefill: -nan
4K_wo_prefill, num_of_hits_wrong_path: 0
4K_wo_prefill, num_of_misses_wrong_path: 0
4K_wo_prefill, btb_miss_stalls: 0
4K_wo_prefill, btb_miss_not_stalls: 0
4K_wo_prefill, direction_mispredictions_do_not_stall: 0
4K_wo_prefill, branch_direction_stalls: 0
4K_wo_prefill, target_prediction_stalls: 0
4K_wo_prefill, target misprediction reason NOTB: 0
4K_wo_prefill, target misprediction reason DJMP: 0
4K_wo_prefill, target misprediction reason INDR: 0
4K_wo_prefill, target misprediction reason COND: 0
4K_wo_prefill, target misprediction reason DCLL: 0
4K_wo_prefill, target misprediction reason ICLL: 0
4K_wo_prefill, target misprediction reason RETN: 0
4K_wo_prefill, target misprediction reason OTHR: 0
4K_wo_prefill, target misprediction reason EXCB: 0
4K_wo_prefill, target match reason NOTB: 0
4K_wo_prefill, target match reason DJMP: 0
4K_wo_prefill, target match reason INDR: 0
4K_wo_prefill, target match reason COND: 0
4K_wo_prefill, target match reason DCLL: 0
4K_wo_prefill, target match reason ICLL: 0
4K_wo_prefill, target match reason RETN: 0
4K_wo_prefill, target match reason OTHR: 0
4K_wo_prefill, target match reason EXCB: 0
4K_wo_prefill, num_of_hash_conflicts: 0
4K_wo_prefill, num_of_block_lookups: 0



SHEET
4K_with_prefill, num_of_lookups: 0
4K_with_prefill, num_of_updates: 0
4K_with_prefill, num_of_predecodes: 0
4K_with_prefill, num_of_hits: 0
4K_with_prefill, num_of_misses: 0
4K_with_prefill, hit rate: -nan
4K_with_prefill, num_of_hits_demand: 0
4K_with_prefill, num_of_misses_demand: 0
4K_with_prefill, hit rate demand: -nan
4K_with_prefill, num_of_hits_prefill: 0
4K_with_prefill, num_of_misses_prefill: 0
4K_with_prefill, hit rate prefill: -nan
4K_with_prefill, num_of_hits_wrong_path: 0
4K_with_prefill, num_of_misses_wrong_path: 0
4K_with_prefill, btb_miss_stalls: 0
4K_with_prefill, btb_miss_not_stalls: 0
4K_with_prefill, direction_mispredictions_do_not_stall: 0
4K_with_prefill, branch_direction_stalls: 0
4K_with_prefill, target_prediction_stalls: 0
4K_with_prefill, target misprediction reason NOTB: 0
4K_with_prefill, target misprediction reason DJMP: 0
4K_with_prefill, target misprediction reason INDR: 0
4K_with_prefill, target misprediction reason COND: 0
4K_with_prefill, target misprediction reason DCLL: 0
4K_with_prefill, target misprediction reason ICLL: 0
4K_with_prefill, target misprediction reason RETN: 0
4K_with_prefill, target misprediction reason OTHR: 0
4K_with_prefill, target misprediction reason EXCB: 0
4K_with_prefill, target match reason NOTB: 0
4K_with_prefill, target match reason DJMP: 0
4K_with_prefill, target match reason INDR: 0
4K_with_prefill, target match reason COND: 0
4K_with_prefill, target match reason DCLL: 0
4K_with_prefill, target match reason ICLL: 0
4K_with_prefill, target match reason RETN: 0
4K_with_prefill, target match reason OTHR: 0
4K_with_prefill, target match reason EXCB: 0
4K_with_prefill, num_of_hash_conflicts: 0
4K_with_prefill, num_of_block_lookups: 0



SHEET
8K_wo_prefill, num_of_lookups: 0
8K_wo_prefill, num_of_updates: 0
8K_wo_prefill, num_of_predecodes: 0
8K_wo_prefill, num_of_hits: 0
8K_wo_prefill, num_of_misses: 0
8K_wo_prefill, hit rate: -nan
8K_wo_prefill, num_of_hits_demand: 0
8K_wo_prefill, num_of_misses_demand: 0
8K_wo_prefill, hit rate demand: -nan
8K_wo_prefill, num_of_hits_prefill: 0
8K_wo_prefill, num_of_misses_prefill: 0
8K_wo_prefill, hit rate prefill: -nan
8K_wo_prefill, num_of_hits_wrong_path: 0
8K_wo_prefill, num_of_misses_wrong_path: 0
8K_wo_prefill, btb_miss_stalls: 0
8K_wo_prefill, btb_miss_not_stalls: 0
8K_wo_prefill, direction_mispredictions_do_not_stall: 0
8K_wo_prefill, branch_direction_stalls: 0
8K_wo_prefill, target_prediction_stalls: 0
8K_wo_prefill, target misprediction reason NOTB: 0
8K_wo_prefill, target misprediction reason DJMP: 0
8K_wo_prefill, target misprediction reason INDR: 0
8K_wo_prefill, target misprediction reason COND: 0
8K_wo_prefill, target misprediction reason DCLL: 0
8K_wo_prefill, target misprediction reason ICLL: 0
8K_wo_prefill, target misprediction reason RETN: 0
8K_wo_prefill, target misprediction reason OTHR: 0
8K_wo_prefill, target misprediction reason EXCB: 0
8K_wo_prefill, target match reason NOTB: 0
8K_wo_prefill, target match reason DJMP: 0
8K_wo_prefill, target match reason INDR: 0
8K_wo_prefill, target match reason COND: 0
8K_wo_prefill, target match reason DCLL: 0
8K_wo_prefill, target match reason ICLL: 0
8K_wo_prefill, target match reason RETN: 0
8K_wo_prefill, target match reason OTHR: 0
8K_wo_prefill, target match reason EXCB: 0
8K_wo_prefill, num_of_hash_conflicts: 0
8K_wo_prefill, num_of_block_lookups: 0



SHEET
8K_with_prefill, num_of_lookups: 0
8K_with_prefill, num_of_updates: 0
8K_with_prefill, num_of_predecodes: 0
8K_with_prefill, num_of_hits: 0
8K_with_prefill, num_of_misses: 0
8K_with_prefill, hit rate: -nan
8K_with_prefill, num_of_hits_demand: 0
8K_with_prefill, num_of_misses_demand: 0
8K_with_prefill, hit rate demand: -nan
8K_with_prefill, num_of_hits_prefill: 0
8K_with_prefill, num_of_misses_prefill: 0
8K_with_prefill, hit rate prefill: -nan
8K_with_prefill, num_of_hits_wrong_path: 0
8K_with_prefill, num_of_misses_wrong_path: 0
8K_with_prefill, btb_miss_stalls: 0
8K_with_prefill, btb_miss_not_stalls: 0
8K_with_prefill, direction_mispredictions_do_not_stall: 0
8K_with_prefill, branch_direction_stalls: 0
8K_with_prefill, target_prediction_stalls: 0
8K_with_prefill, target misprediction reason NOTB: 0
8K_with_prefill, target misprediction reason DJMP: 0
8K_with_prefill, target misprediction reason INDR: 0
8K_with_prefill, target misprediction reason COND: 0
8K_with_prefill, target misprediction reason DCLL: 0
8K_with_prefill, target misprediction reason ICLL: 0
8K_with_prefill, target misprediction reason RETN: 0
8K_with_prefill, target misprediction reason OTHR: 0
8K_with_prefill, target misprediction reason EXCB: 0
8K_with_prefill, target match reason NOTB: 0
8K_with_prefill, target match reason DJMP: 0
8K_with_prefill, target match reason INDR: 0
8K_with_prefill, target match reason COND: 0
8K_with_prefill, target match reason DCLL: 0
8K_with_prefill, target match reason ICLL: 0
8K_with_prefill, target match reason RETN: 0
8K_with_prefill, target match reason OTHR: 0
8K_with_prefill, target match reason EXCB: 0
8K_with_prefill, num_of_hash_conflicts: 0
8K_with_prefill, num_of_block_lookups: 0



SHEET
16K_wo_prefill, num_of_lookups: 0
16K_wo_prefill, num_of_updates: 0
16K_wo_prefill, num_of_predecodes: 0
16K_wo_prefill, num_of_hits: 0
16K_wo_prefill, num_of_misses: 0
16K_wo_prefill, hit rate: -nan
16K_wo_prefill, num_of_hits_demand: 0
16K_wo_prefill, num_of_misses_demand: 0
16K_wo_prefill, hit rate demand: -nan
16K_wo_prefill, num_of_hits_prefill: 0
16K_wo_prefill, num_of_misses_prefill: 0
16K_wo_prefill, hit rate prefill: -nan
16K_wo_prefill, num_of_hits_wrong_path: 0
16K_wo_prefill, num_of_misses_wrong_path: 0
16K_wo_prefill, btb_miss_stalls: 0
16K_wo_prefill, btb_miss_not_stalls: 0
16K_wo_prefill, direction_mispredictions_do_not_stall: 0
16K_wo_prefill, branch_direction_stalls: 0
16K_wo_prefill, target_prediction_stalls: 0
16K_wo_prefill, target misprediction reason NOTB: 0
16K_wo_prefill, target misprediction reason DJMP: 0
16K_wo_prefill, target misprediction reason INDR: 0
16K_wo_prefill, target misprediction reason COND: 0
16K_wo_prefill, target misprediction reason DCLL: 0
16K_wo_prefill, target misprediction reason ICLL: 0
16K_wo_prefill, target misprediction reason RETN: 0
16K_wo_prefill, target misprediction reason OTHR: 0
16K_wo_prefill, target misprediction reason EXCB: 0
16K_wo_prefill, target match reason NOTB: 0
16K_wo_prefill, target match reason DJMP: 0
16K_wo_prefill, target match reason INDR: 0
16K_wo_prefill, target match reason COND: 0
16K_wo_prefill, target match reason DCLL: 0
16K_wo_prefill, target match reason ICLL: 0
16K_wo_prefill, target match reason RETN: 0
16K_wo_prefill, target match reason OTHR: 0
16K_wo_prefill, target match reason EXCB: 0
16K_wo_prefill, num_of_hash_conflicts: 0
16K_wo_prefill, num_of_block_lookups: 0



SHEET
16K_with_prefill, num_of_lookups: 0
16K_with_prefill, num_of_updates: 0
16K_with_prefill, num_of_predecodes: 0
16K_with_prefill, num_of_hits: 0
16K_with_prefill, num_of_misses: 0
16K_with_prefill, hit rate: -nan
16K_with_prefill, num_of_hits_demand: 0
16K_with_prefill, num_of_misses_demand: 0
16K_with_prefill, hit rate demand: -nan
16K_with_prefill, num_of_hits_prefill: 0
16K_with_prefill, num_of_misses_prefill: 0
16K_with_prefill, hit rate prefill: -nan
16K_with_prefill, num_of_hits_wrong_path: 0
16K_with_prefill, num_of_misses_wrong_path: 0
16K_with_prefill, btb_miss_stalls: 0
16K_with_prefill, btb_miss_not_stalls: 0
16K_with_prefill, direction_mispredictions_do_not_stall: 0
16K_with_prefill, branch_direction_stalls: 0
16K_with_prefill, target_prediction_stalls: 0
16K_with_prefill, target misprediction reason NOTB: 0
16K_with_prefill, target misprediction reason DJMP: 0
16K_with_prefill, target misprediction reason INDR: 0
16K_with_prefill, target misprediction reason COND: 0
16K_with_prefill, target misprediction reason DCLL: 0
16K_with_prefill, target misprediction reason ICLL: 0
16K_with_prefill, target misprediction reason RETN: 0
16K_with_prefill, target misprediction reason OTHR: 0
16K_with_prefill, target misprediction reason EXCB: 0
16K_with_prefill, target match reason NOTB: 0
16K_with_prefill, target match reason DJMP: 0
16K_with_prefill, target match reason INDR: 0
16K_with_prefill, target match reason COND: 0
16K_with_prefill, target match reason DCLL: 0
16K_with_prefill, target match reason ICLL: 0
16K_with_prefill, target match reason RETN: 0
16K_with_prefill, target match reason OTHR: 0
16K_with_prefill, target match reason EXCB: 0
16K_with_prefill, num_of_hash_conflicts: 0
16K_with_prefill, num_of_block_lookups: 0



SHEET
32K_wo_prefill, num_of_lookups: 0
32K_wo_prefill, num_of_updates: 0
32K_wo_prefill, num_of_predecodes: 0
32K_wo_prefill, num_of_hits: 0
32K_wo_prefill, num_of_misses: 0
32K_wo_prefill, hit rate: -nan
32K_wo_prefill, num_of_hits_demand: 0
32K_wo_prefill, num_of_misses_demand: 0
32K_wo_prefill, hit rate demand: -nan
32K_wo_prefill, num_of_hits_prefill: 0
32K_wo_prefill, num_of_misses_prefill: 0
32K_wo_prefill, hit rate prefill: -nan
32K_wo_prefill, num_of_hits_wrong_path: 0
32K_wo_prefill, num_of_misses_wrong_path: 0
32K_wo_prefill, btb_miss_stalls: 0
32K_wo_prefill, btb_miss_not_stalls: 0
32K_wo_prefill, direction_mispredictions_do_not_stall: 0
32K_wo_prefill, branch_direction_stalls: 0
32K_wo_prefill, target_prediction_stalls: 0
32K_wo_prefill, target misprediction reason NOTB: 0
32K_wo_prefill, target misprediction reason DJMP: 0
32K_wo_prefill, target misprediction reason INDR: 0
32K_wo_prefill, target misprediction reason COND: 0
32K_wo_prefill, target misprediction reason DCLL: 0
32K_wo_prefill, target misprediction reason ICLL: 0
32K_wo_prefill, target misprediction reason RETN: 0
32K_wo_prefill, target misprediction reason OTHR: 0
32K_wo_prefill, target misprediction reason EXCB: 0
32K_wo_prefill, target match reason NOTB: 0
32K_wo_prefill, target match reason DJMP: 0
32K_wo_prefill, target match reason INDR: 0
32K_wo_prefill, target match reason COND: 0
32K_wo_prefill, target match reason DCLL: 0
32K_wo_prefill, target match reason ICLL: 0
32K_wo_prefill, target match reason RETN: 0
32K_wo_prefill, target match reason OTHR: 0
32K_wo_prefill, target match reason EXCB: 0
32K_wo_prefill, num_of_hash_conflicts: 0
32K_wo_prefill, num_of_block_lookups: 0



SHEET
32K_with_prefill, num_of_lookups: 0
32K_with_prefill, num_of_updates: 0
32K_with_prefill, num_of_predecodes: 0
32K_with_prefill, num_of_hits: 0
32K_with_prefill, num_of_misses: 0
32K_with_prefill, hit rate: -nan
32K_with_prefill, num_of_hits_demand: 0
32K_with_prefill, num_of_misses_demand: 0
32K_with_prefill, hit rate demand: -nan
32K_with_prefill, num_of_hits_prefill: 0
32K_with_prefill, num_of_misses_prefill: 0
32K_with_prefill, hit rate prefill: -nan
32K_with_prefill, num_of_hits_wrong_path: 0
32K_with_prefill, num_of_misses_wrong_path: 0
32K_with_prefill, btb_miss_stalls: 0
32K_with_prefill, btb_miss_not_stalls: 0
32K_with_prefill, direction_mispredictions_do_not_stall: 0
32K_with_prefill, branch_direction_stalls: 0
32K_with_prefill, target_prediction_stalls: 0
32K_with_prefill, target misprediction reason NOTB: 0
32K_with_prefill, target misprediction reason DJMP: 0
32K_with_prefill, target misprediction reason INDR: 0
32K_with_prefill, target misprediction reason COND: 0
32K_with_prefill, target misprediction reason DCLL: 0
32K_with_prefill, target misprediction reason ICLL: 0
32K_with_prefill, target misprediction reason RETN: 0
32K_with_prefill, target misprediction reason OTHR: 0
32K_with_prefill, target misprediction reason EXCB: 0
32K_with_prefill, target match reason NOTB: 0
32K_with_prefill, target match reason DJMP: 0
32K_with_prefill, target match reason INDR: 0
32K_with_prefill, target match reason COND: 0
32K_with_prefill, target match reason DCLL: 0
32K_with_prefill, target match reason ICLL: 0
32K_with_prefill, target match reason RETN: 0
32K_with_prefill, target match reason OTHR: 0
32K_with_prefill, target match reason EXCB: 0
32K_with_prefill, num_of_hash_conflicts: 0
32K_with_prefill, num_of_block_lookups: 0



SHEET
Confluence_BTB, num_of_lookups: 0
Confluence_BTB, num_of_updates: 0
Confluence_BTB, num_of_predecodes: 0
Confluence_BTB, num_of_hits: 0
Confluence_BTB, num_of_misses: 0
Confluence_BTB, hit rate: -nan
Confluence_BTB, num_of_hits_demand: 0
Confluence_BTB, num_of_misses_demand: 0
Confluence_BTB, hit rate demand: -nan
Confluence_BTB, num_of_hits_prefill: 0
Confluence_BTB, num_of_misses_prefill: 0
Confluence_BTB, hit rate prefill: -nan
Confluence_BTB, num_of_hits_wrong_path: 0
Confluence_BTB, num_of_misses_wrong_path: 0
Confluence_BTB, btb_miss_stalls: 0
Confluence_BTB, btb_miss_not_stalls: 0
Confluence_BTB, direction_mispredictions_do_not_stall: 0
Confluence_BTB, branch_direction_stalls: 0
Confluence_BTB, target_prediction_stalls: 0
Confluence_BTB, target misprediction reason NOTB: 0
Confluence_BTB, target misprediction reason DJMP: 0
Confluence_BTB, target misprediction reason INDR: 0
Confluence_BTB, target misprediction reason COND: 0
Confluence_BTB, target misprediction reason DCLL: 0
Confluence_BTB, target misprediction reason ICLL: 0
Confluence_BTB, target misprediction reason RETN: 0
Confluence_BTB, target misprediction reason OTHR: 0
Confluence_BTB, target misprediction reason EXCB: 0
Confluence_BTB, target match reason NOTB: 0
Confluence_BTB, target match reason DJMP: 0
Confluence_BTB, target match reason INDR: 0
Confluence_BTB, target match reason COND: 0
Confluence_BTB, target match reason DCLL: 0
Confluence_BTB, target match reason ICLL: 0
Confluence_BTB, target match reason RETN: 0
Confluence_BTB, target match reason OTHR: 0
Confluence_BTB, target match reason EXCB: 0



SHEET
2K_sn4l_BTB, num_of_lookups: 8526409
2K_sn4l_BTB, num_of_updates: 382228
2K_sn4l_BTB, num_of_predecodes: 2562494
2K_sn4l_BTB, num_of_updates_pb: 2164465
2K_sn4l_BTB, num_of_hits: 7598190
2K_sn4l_BTB, num_of_misses: 928219
2K_sn4l_BTB, hit rate: 0.891136
2K_sn4l_BTB, num_of_hits_demand: 7598190
2K_sn4l_BTB, num_of_misses_demand: 928219
2K_sn4l_BTB, hit rate demand: 0.891136
2K_sn4l_BTB, num_of_hits_prefill: 0
2K_sn4l_BTB, num_of_misses_prefill: 0
2K_sn4l_BTB, hit rate prefill: -nan
2K_sn4l_BTB, num_of_hits_wrong_path: 0
2K_sn4l_BTB, num_of_misses_wrong_path: 0
2K_sn4l_BTB, btb_miss_stalls: 80373
2K_sn4l_BTB, btb_miss_not_stalls: 847846
2K_sn4l_BTB, direction_mispredictions_do_not_stall: 2762
2K_sn4l_BTB, branch_direction_stalls: 28476
2K_sn4l_BTB, target_prediction_stalls: 88090
2K_sn4l_BTB, target misprediction reason NOTB: 0
2K_sn4l_BTB, target misprediction reason DJMP: 212
2K_sn4l_BTB, target misprediction reason INDR: 57731
2K_sn4l_BTB, target misprediction reason COND: 1706
2K_sn4l_BTB, target misprediction reason DCLL: 368
2K_sn4l_BTB, target misprediction reason ICLL: 519
2K_sn4l_BTB, target misprediction reason RETN: 27554
2K_sn4l_BTB, target misprediction reason OTHR: 0
2K_sn4l_BTB, target misprediction reason EXCB: 0
2K_sn4l_BTB, target match reason NOTB: 0
2K_sn4l_BTB, target match reason DJMP: 337864
2K_sn4l_BTB, target match reason INDR: 88034
2K_sn4l_BTB, target match reason COND: 5903688
2K_sn4l_BTB, target match reason DCLL: 552423
2K_sn4l_BTB, target match reason ICLL: 21605
2K_sn4l_BTB, target match reason RETN: 575248
2K_sn4l_BTB, target match reason OTHR: 0
2K_sn4l_BTB, target match reason EXCB: 0



SHEET
branches: 18594


SHEET
2K_wo_prefill btb_miss_stalls: 0
2K_wo_prefill branch_direction_stalls: 0
2K_wo_prefill target_prediction_stalls: 0
2K_with_prefill btb_miss_stalls: 0
2K_with_prefill branch_direction_stalls: 0
2K_with_prefill target_prediction_stalls: 0
4K_wo_prefill btb_miss_stalls: 0
4K_wo_prefill branch_direction_stalls: 0
4K_wo_prefill target_prediction_stalls: 0
4K_with_prefill btb_miss_stalls: 0
4K_with_prefill branch_direction_stalls: 0
4K_with_prefill target_prediction_stalls: 0
8K_wo_prefill btb_miss_stalls: 0
8K_wo_prefill branch_direction_stalls: 0
8K_wo_prefill target_prediction_stalls: 0
8K_with_prefill btb_miss_stalls: 0
8K_with_prefill branch_direction_stalls: 0
8K_with_prefill target_prediction_stalls: 0
16K_wo_prefill btb_miss_stalls: 0
16K_wo_prefill branch_direction_stalls: 0
16K_wo_prefill target_prediction_stalls: 0
16K_with_prefill btb_miss_stalls: 0
16K_with_prefill branch_direction_stalls: 0
16K_with_prefill target_prediction_stalls: 0
32K_wo_prefill btb_miss_stalls: 0
32K_wo_prefill branch_direction_stalls: 0
32K_wo_prefill target_prediction_stalls: 0
32K_with_prefill btb_miss_stalls: 0
32K_with_prefill branch_direction_stalls: 0
32K_with_prefill target_prediction_stalls: 0
Confluence_BTB btb_miss_stalls: 0
Confluence_BTB branch_direction_stalls: 0
Confluence_BTB target_prediction_stalls: 0
2K_sn4l_BTB btb_miss_stalls: 1.60746
2K_sn4l_BTB branch_direction_stalls: 0.56952
2K_sn4l_BTB target_prediction_stalls: 1.7618



CPU 0 L1D next line prefetcher final stats

DRAM Statistics
 CHANNEL 0
 RQ ROW_BUFFER_HIT:     100076  ROW_BUFFER_MISS:     229620
 DBUS_CONGESTED:     226090
 WQ ROW_BUFFER_HIT:      35334  ROW_BUFFER_MISS:     123748  FULL:          0

 AVG_CONGESTED_CYCLE: 6

CPU 0 Branch Prediction Accuracy: 99.5889% MPKI: 0.70108 Average ROB Occupancy at Mispredict: 103.954

Branch types
NOT_BRANCH: 41473571 82.9471%
BRANCH_DIRECT_JUMP: 347941 0.695882%
BRANCH_INDIRECT: 148212 0.296424%
BRANCH_CONDITIONAL: 6817276 13.6346%
BRANCH_DIRECT_CALL: 570724 1.14145%
BRANCH_INDIRECT_CALL: 25133 0.050266%
BRANCH_RETURN: 617123 1.23425%
BRANCH_OTHER: 0 0%

