Initialize SIGNATURE TABLE
ST_SET: 1
ST_WAY: 256
ST_TAG_BIT: 16
ST_TAG_MASK: ffff

Initialize PATTERN TABLE
PT_SET: 512
PT_WAY: 4
SIG_DELTA_BIT: 7
C_SIG_BIT: 4
C_DELTA_BIT: 4

Initialize PREFETCH FILTER
FILTER_SET: 1024

*** ChampSim Multicore Out-of-Order Simulator ***

Warmup Instructions: 50000000
Simulation Instructions: 50000000
Number of CPUs: 1
LLC sets: 2048
LLC ways: 16
Off-chip DRAM Size: 4096 MB Channels: 1 Width: 64-bit Data Rate: 3200 MT/s

CPU 0 runs /home/ansari/ipc1_public//server_035.champsimtrace.xz
CPU 0 L1D next line prefetcher
Heartbeat CPU 0 instructions: 10000001 cycles: 3337757 heartbeat IPC: 2.99602 cumulative IPC: 2.99602 (Simulation time: 0 hr 1 min 13 sec) 
Heartbeat CPU 0 instructions: 20000000 cycles: 6675739 heartbeat IPC: 2.99582 cumulative IPC: 2.99592 (Simulation time: 0 hr 2 min 27 sec) 
Heartbeat CPU 0 instructions: 30000000 cycles: 10010048 heartbeat IPC: 2.99912 cumulative IPC: 2.99699 (Simulation time: 0 hr 3 min 44 sec) 
Heartbeat CPU 0 instructions: 40000000 cycles: 13349340 heartbeat IPC: 2.99465 cumulative IPC: 2.9964 (Simulation time: 0 hr 5 min 1 sec) 
Heartbeat CPU 0 instructions: 50000003 cycles: 16685212 heartbeat IPC: 2.99772 cumulative IPC: 2.99667 (Simulation time: 0 hr 6 min 22 sec) 

Warmup complete CPU 0 instructions: 50000003 cycles: 16685212 (Simulation time: 0 hr 6 min 22 sec) 

Heartbeat CPU 0 instructions: 60000001 cycles: 25312203 heartbeat IPC: 1.15915 cumulative IPC: 1.15915 (Simulation time: 0 hr 7 min 42 sec) 
Heartbeat CPU 0 instructions: 70000003 cycles: 33617761 heartbeat IPC: 1.20401 cumulative IPC: 1.18116 (Simulation time: 0 hr 8 min 55 sec) 
Heartbeat CPU 0 instructions: 80000000 cycles: 42099939 heartbeat IPC: 1.17894 cumulative IPC: 1.18042 (Simulation time: 0 hr 9 min 52 sec) 
Heartbeat CPU 0 instructions: 90000002 cycles: 49882925 heartbeat IPC: 1.28485 cumulative IPC: 1.2049 (Simulation time: 0 hr 10 min 40 sec) 
Heartbeat CPU 0 instructions: 100000002 cycles: 58293742 heartbeat IPC: 1.18895 cumulative IPC: 1.20168 (Simulation time: 0 hr 11 min 31 sec) 
Finished CPU 0 instructions: 50000003 cycles: 41608531 cumulative IPC: 1.20168 (Simulation time: 0 hr 11 min 31 sec) 


SHEET
IPC: 1.20168


ChampSim completed all CPUs

Region of Interest Statistics

CPU 0 cumulative IPC: 1.20168 instructions: 50000003 cycles: 41608531
L1D TOTAL     ACCESS:   18416532  HIT:   16912359  MISS:    1504173
L1D LOAD      ACCESS:    6235862  HIT:    5534661  MISS:     701201
L1D RFO       ACCESS:    6155352  HIT:    6002961  MISS:     152391
L1D PREFETCH  ACCESS:    6025318  HIT:    5374737  MISS:     650581
L1D WRITEBACK ACCESS:          0  HIT:          0  MISS:          0
L1D PREFETCH  REQUESTED:    6282228  ISSUED:    6188660  USEFUL:     138715  USELESS:     511871
L1D AVERAGE MISS LATENCY: 44.3662 cycles
L1I TOTAL     ACCESS:   24601782  HIT:   20296895  MISS:    4304887
L1I LOAD      ACCESS:    9521773  HIT:    8813937  MISS:     707836
L1I RFO       ACCESS:          0  HIT:          0  MISS:          0
L1I PREFETCH  ACCESS:   15080009  HIT:   11482958  MISS:    3597051
L1I WRITEBACK ACCESS:          0  HIT:          0  MISS:          0
L1I PREFETCH  REQUESTED:   21932368  ISSUED:   21445509  USEFUL:    2719098  USELESS:     877902
L1I AVERAGE MISS LATENCY: 14.2863 cycles
L2C TOTAL     ACCESS:    7721947  HIT:    7404759  MISS:     317188
L2C LOAD      ACCESS:    1027832  HIT:     895904  MISS:     131928
L2C RFO       ACCESS:     150608  HIT:     127003  MISS:      23605
L2C PREFETCH  ACCESS:    6178494  HIT:    6019719  MISS:     158775
L2C WRITEBACK ACCESS:     365013  HIT:     362133  MISS:       2880
L2C PREFETCH  REQUESTED:    5352623  ISSUED:    5346663  USEFUL:      15665  USELESS:     142300
L2C AVERAGE MISS LATENCY: 154.762 cycles
LLC TOTAL     ACCESS:    1894100  HIT:    1614238  MISS:     279862
LLC LOAD      ACCESS:     131600  HIT:      44802  MISS:      86798
LLC RFO       ACCESS:      23605  HIT:      12648  MISS:      10957
LLC PREFETCH  ACCESS:    1633739  HIT:    1452671  MISS:     181068
LLC WRITEBACK ACCESS:     105156  HIT:     104117  MISS:       1039
LLC PREFETCH  REQUESTED:          0  ISSUED:          0  USEFUL:      28377  USELESS:     151832
LLC AVERAGE MISS LATENCY: 213.416 cycles
Major fault: 0 Minor fault: 5559



CPU 0 #distinct_blocks: 3480



DisTable SINGLE
total_freq: 1113568
total_correct_predictions: 1112511
total_wrong_predictions: 192
total_predictability: 1112514
total_first_and_second_predictions: 1113568



total circular correct: 1112511
total circular wrong: 192



total_timely_predictions: 892481
total_untimely_predictions: 220030



dis_in_seq_region: 204	dis_out_of_sequential_region: 850



histogram_num_of_dests 0: 11234
histogram_num_of_dests 1: 1054
histogram_num_of_dests 2: 0
histogram_num_of_dests 3: 0
histogram_num_of_dests 4: 0
histogram_num_of_dests 5: 0
histogram_num_of_dests 6: 0
histogram_num_of_dests 7: 0
histogram_num_of_dests 8: 0
histogram_num_of_dests 9: 0
total_single_destination: 1054
total_multiple_destination: 0



DisTable MULTIPLE
total_freq: 1852603
total_correct_predictions: 1680121
total_wrong_predictions: 171886
total_predictability: 1851133
total_first_and_second_predictions: 1688048



total circular correct: 1680121
total circular wrong: 171886



total_timely_predictions: 1271905
total_untimely_predictions: 408216



dis_in_seq_region: 196	dis_out_of_sequential_region: 1274



histogram_num_of_dests 0: 3498
histogram_num_of_dests 1: 0
histogram_num_of_dests 2: 427
histogram_num_of_dests 3: 107
histogram_num_of_dests 4: 43
histogram_num_of_dests 5: 14
histogram_num_of_dests 6: 1
histogram_num_of_dests 7: 5
histogram_num_of_dests 8: 0
histogram_num_of_dests 9: 1
total_single_destination: 0
total_multiple_destination: 598



sequential_1_misses: 1063443
sequential_4_misses: 1162643
discontinuity_misses: 691511
sequential_1_prefHits: 2791435
sequential_4_prefHits 3177705
discontinuity_prefHits: 1852507



SeqTable
SeqTable matches: 67892116	conflicts: 193960



wrong_snl_table:
wrong_snl_table matches: 22113311	conflicts: 94594



DisTable1
num_of_hits: 1218900	num_of_misses: 64778	num_of_evictions: 1652	num_of_ignored_dests: 63315
num_of_updates: 1220363	internal_conflicts: 0	external_conflicts: 0



DisTable2
num_of_hits: 1746408	num_of_misses: 0	num_of_evictions: 598	num_of_ignored_dests: 2
num_of_updates: 1746406	internal_conflicts: 88125	external_conflicts: 0



RLU_permit: 39729054
RLU_filter: 10118396



non_prefetched_miss_in_seq_region: 559167
non_prefetched_miss_in_Dis_region: 381304



update_history_entry_missed: 1810587


SHEET
2K_wo_prefill, num_of_lookups: 0
2K_wo_prefill, num_of_updates: 0
2K_wo_prefill, num_of_predecodes: 0
2K_wo_prefill, num_of_hits: 0
2K_wo_prefill, num_of_misses: 0
2K_wo_prefill, hit rate: -nan
2K_wo_prefill, num_of_hits_demand: 0
2K_wo_prefill, num_of_misses_demand: 0
2K_wo_prefill, hit rate demand: -nan
2K_wo_prefill, num_of_hits_prefill: 0
2K_wo_prefill, num_of_misses_prefill: 0
2K_wo_prefill, hit rate prefill: -nan
2K_wo_prefill, num_of_hits_wrong_path: 0
2K_wo_prefill, num_of_misses_wrong_path: 0
2K_wo_prefill, btb_miss_stalls: 0
2K_wo_prefill, btb_miss_not_stalls: 0
2K_wo_prefill, direction_mispredictions_do_not_stall: 0
2K_wo_prefill, branch_direction_stalls: 0
2K_wo_prefill, target_prediction_stalls: 0
2K_wo_prefill, target misprediction reason NOTB: 0
2K_wo_prefill, target misprediction reason DJMP: 0
2K_wo_prefill, target misprediction reason INDR: 0
2K_wo_prefill, target misprediction reason COND: 0
2K_wo_prefill, target misprediction reason DCLL: 0
2K_wo_prefill, target misprediction reason ICLL: 0
2K_wo_prefill, target misprediction reason RETN: 0
2K_wo_prefill, target misprediction reason OTHR: 0
2K_wo_prefill, target misprediction reason EXCB: 0
2K_wo_prefill, target match reason NOTB: 0
2K_wo_prefill, target match reason DJMP: 0
2K_wo_prefill, target match reason INDR: 0
2K_wo_prefill, target match reason COND: 0
2K_wo_prefill, target match reason DCLL: 0
2K_wo_prefill, target match reason ICLL: 0
2K_wo_prefill, target match reason RETN: 0
2K_wo_prefill, target match reason OTHR: 0
2K_wo_prefill, target match reason EXCB: 0
2K_wo_prefill, num_of_hash_conflicts: 0
2K_wo_prefill, num_of_block_lookups: 0



SHEET
2K_with_prefill, num_of_lookups: 0
2K_with_prefill, num_of_updates: 0
2K_with_prefill, num_of_predecodes: 0
2K_with_prefill, num_of_hits: 0
2K_with_prefill, num_of_misses: 0
2K_with_prefill, hit rate: -nan
2K_with_prefill, num_of_hits_demand: 0
2K_with_prefill, num_of_misses_demand: 0
2K_with_prefill, hit rate demand: -nan
2K_with_prefill, num_of_hits_prefill: 0
2K_with_prefill, num_of_misses_prefill: 0
2K_with_prefill, hit rate prefill: -nan
2K_with_prefill, num_of_hits_wrong_path: 0
2K_with_prefill, num_of_misses_wrong_path: 0
2K_with_prefill, btb_miss_stalls: 0
2K_with_prefill, btb_miss_not_stalls: 0
2K_with_prefill, direction_mispredictions_do_not_stall: 0
2K_with_prefill, branch_direction_stalls: 0
2K_with_prefill, target_prediction_stalls: 0
2K_with_prefill, target misprediction reason NOTB: 0
2K_with_prefill, target misprediction reason DJMP: 0
2K_with_prefill, target misprediction reason INDR: 0
2K_with_prefill, target misprediction reason COND: 0
2K_with_prefill, target misprediction reason DCLL: 0
2K_with_prefill, target misprediction reason ICLL: 0
2K_with_prefill, target misprediction reason RETN: 0
2K_with_prefill, target misprediction reason OTHR: 0
2K_with_prefill, target misprediction reason EXCB: 0
2K_with_prefill, target match reason NOTB: 0
2K_with_prefill, target match reason DJMP: 0
2K_with_prefill, target match reason INDR: 0
2K_with_prefill, target match reason COND: 0
2K_with_prefill, target match reason DCLL: 0
2K_with_prefill, target match reason ICLL: 0
2K_with_prefill, target match reason RETN: 0
2K_with_prefill, target match reason OTHR: 0
2K_with_prefill, target match reason EXCB: 0
2K_with_prefill, num_of_hash_conflicts: 0
2K_with_prefill, num_of_block_lookups: 0



SHEET
4K_wo_prefill, num_of_lookups: 0
4K_wo_prefill, num_of_updates: 0
4K_wo_prefill, num_of_predecodes: 0
4K_wo_prefill, num_of_hits: 0
4K_wo_prefill, num_of_misses: 0
4K_wo_prefill, hit rate: -nan
4K_wo_prefill, num_of_hits_demand: 0
4K_wo_prefill, num_of_misses_demand: 0
4K_wo_prefill, hit rate demand: -nan
4K_wo_prefill, num_of_hits_prefill: 0
4K_wo_prefill, num_of_misses_prefill: 0
4K_wo_prefill, hit rate prefill: -nan
4K_wo_prefill, num_of_hits_wrong_path: 0
4K_wo_prefill, num_of_misses_wrong_path: 0
4K_wo_prefill, btb_miss_stalls: 0
4K_wo_prefill, btb_miss_not_stalls: 0
4K_wo_prefill, direction_mispredictions_do_not_stall: 0
4K_wo_prefill, branch_direction_stalls: 0
4K_wo_prefill, target_prediction_stalls: 0
4K_wo_prefill, target misprediction reason NOTB: 0
4K_wo_prefill, target misprediction reason DJMP: 0
4K_wo_prefill, target misprediction reason INDR: 0
4K_wo_prefill, target misprediction reason COND: 0
4K_wo_prefill, target misprediction reason DCLL: 0
4K_wo_prefill, target misprediction reason ICLL: 0
4K_wo_prefill, target misprediction reason RETN: 0
4K_wo_prefill, target misprediction reason OTHR: 0
4K_wo_prefill, target misprediction reason EXCB: 0
4K_wo_prefill, target match reason NOTB: 0
4K_wo_prefill, target match reason DJMP: 0
4K_wo_prefill, target match reason INDR: 0
4K_wo_prefill, target match reason COND: 0
4K_wo_prefill, target match reason DCLL: 0
4K_wo_prefill, target match reason ICLL: 0
4K_wo_prefill, target match reason RETN: 0
4K_wo_prefill, target match reason OTHR: 0
4K_wo_prefill, target match reason EXCB: 0
4K_wo_prefill, num_of_hash_conflicts: 0
4K_wo_prefill, num_of_block_lookups: 0



SHEET
4K_with_prefill, num_of_lookups: 0
4K_with_prefill, num_of_updates: 0
4K_with_prefill, num_of_predecodes: 0
4K_with_prefill, num_of_hits: 0
4K_with_prefill, num_of_misses: 0
4K_with_prefill, hit rate: -nan
4K_with_prefill, num_of_hits_demand: 0
4K_with_prefill, num_of_misses_demand: 0
4K_with_prefill, hit rate demand: -nan
4K_with_prefill, num_of_hits_prefill: 0
4K_with_prefill, num_of_misses_prefill: 0
4K_with_prefill, hit rate prefill: -nan
4K_with_prefill, num_of_hits_wrong_path: 0
4K_with_prefill, num_of_misses_wrong_path: 0
4K_with_prefill, btb_miss_stalls: 0
4K_with_prefill, btb_miss_not_stalls: 0
4K_with_prefill, direction_mispredictions_do_not_stall: 0
4K_with_prefill, branch_direction_stalls: 0
4K_with_prefill, target_prediction_stalls: 0
4K_with_prefill, target misprediction reason NOTB: 0
4K_with_prefill, target misprediction reason DJMP: 0
4K_with_prefill, target misprediction reason INDR: 0
4K_with_prefill, target misprediction reason COND: 0
4K_with_prefill, target misprediction reason DCLL: 0
4K_with_prefill, target misprediction reason ICLL: 0
4K_with_prefill, target misprediction reason RETN: 0
4K_with_prefill, target misprediction reason OTHR: 0
4K_with_prefill, target misprediction reason EXCB: 0
4K_with_prefill, target match reason NOTB: 0
4K_with_prefill, target match reason DJMP: 0
4K_with_prefill, target match reason INDR: 0
4K_with_prefill, target match reason COND: 0
4K_with_prefill, target match reason DCLL: 0
4K_with_prefill, target match reason ICLL: 0
4K_with_prefill, target match reason RETN: 0
4K_with_prefill, target match reason OTHR: 0
4K_with_prefill, target match reason EXCB: 0
4K_with_prefill, num_of_hash_conflicts: 0
4K_with_prefill, num_of_block_lookups: 0



SHEET
8K_wo_prefill, num_of_lookups: 0
8K_wo_prefill, num_of_updates: 0
8K_wo_prefill, num_of_predecodes: 0
8K_wo_prefill, num_of_hits: 0
8K_wo_prefill, num_of_misses: 0
8K_wo_prefill, hit rate: -nan
8K_wo_prefill, num_of_hits_demand: 0
8K_wo_prefill, num_of_misses_demand: 0
8K_wo_prefill, hit rate demand: -nan
8K_wo_prefill, num_of_hits_prefill: 0
8K_wo_prefill, num_of_misses_prefill: 0
8K_wo_prefill, hit rate prefill: -nan
8K_wo_prefill, num_of_hits_wrong_path: 0
8K_wo_prefill, num_of_misses_wrong_path: 0
8K_wo_prefill, btb_miss_stalls: 0
8K_wo_prefill, btb_miss_not_stalls: 0
8K_wo_prefill, direction_mispredictions_do_not_stall: 0
8K_wo_prefill, branch_direction_stalls: 0
8K_wo_prefill, target_prediction_stalls: 0
8K_wo_prefill, target misprediction reason NOTB: 0
8K_wo_prefill, target misprediction reason DJMP: 0
8K_wo_prefill, target misprediction reason INDR: 0
8K_wo_prefill, target misprediction reason COND: 0
8K_wo_prefill, target misprediction reason DCLL: 0
8K_wo_prefill, target misprediction reason ICLL: 0
8K_wo_prefill, target misprediction reason RETN: 0
8K_wo_prefill, target misprediction reason OTHR: 0
8K_wo_prefill, target misprediction reason EXCB: 0
8K_wo_prefill, target match reason NOTB: 0
8K_wo_prefill, target match reason DJMP: 0
8K_wo_prefill, target match reason INDR: 0
8K_wo_prefill, target match reason COND: 0
8K_wo_prefill, target match reason DCLL: 0
8K_wo_prefill, target match reason ICLL: 0
8K_wo_prefill, target match reason RETN: 0
8K_wo_prefill, target match reason OTHR: 0
8K_wo_prefill, target match reason EXCB: 0
8K_wo_prefill, num_of_hash_conflicts: 0
8K_wo_prefill, num_of_block_lookups: 0



SHEET
8K_with_prefill, num_of_lookups: 0
8K_with_prefill, num_of_updates: 0
8K_with_prefill, num_of_predecodes: 0
8K_with_prefill, num_of_hits: 0
8K_with_prefill, num_of_misses: 0
8K_with_prefill, hit rate: -nan
8K_with_prefill, num_of_hits_demand: 0
8K_with_prefill, num_of_misses_demand: 0
8K_with_prefill, hit rate demand: -nan
8K_with_prefill, num_of_hits_prefill: 0
8K_with_prefill, num_of_misses_prefill: 0
8K_with_prefill, hit rate prefill: -nan
8K_with_prefill, num_of_hits_wrong_path: 0
8K_with_prefill, num_of_misses_wrong_path: 0
8K_with_prefill, btb_miss_stalls: 0
8K_with_prefill, btb_miss_not_stalls: 0
8K_with_prefill, direction_mispredictions_do_not_stall: 0
8K_with_prefill, branch_direction_stalls: 0
8K_with_prefill, target_prediction_stalls: 0
8K_with_prefill, target misprediction reason NOTB: 0
8K_with_prefill, target misprediction reason DJMP: 0
8K_with_prefill, target misprediction reason INDR: 0
8K_with_prefill, target misprediction reason COND: 0
8K_with_prefill, target misprediction reason DCLL: 0
8K_with_prefill, target misprediction reason ICLL: 0
8K_with_prefill, target misprediction reason RETN: 0
8K_with_prefill, target misprediction reason OTHR: 0
8K_with_prefill, target misprediction reason EXCB: 0
8K_with_prefill, target match reason NOTB: 0
8K_with_prefill, target match reason DJMP: 0
8K_with_prefill, target match reason INDR: 0
8K_with_prefill, target match reason COND: 0
8K_with_prefill, target match reason DCLL: 0
8K_with_prefill, target match reason ICLL: 0
8K_with_prefill, target match reason RETN: 0
8K_with_prefill, target match reason OTHR: 0
8K_with_prefill, target match reason EXCB: 0
8K_with_prefill, num_of_hash_conflicts: 0
8K_with_prefill, num_of_block_lookups: 0



SHEET
16K_wo_prefill, num_of_lookups: 0
16K_wo_prefill, num_of_updates: 0
16K_wo_prefill, num_of_predecodes: 0
16K_wo_prefill, num_of_hits: 0
16K_wo_prefill, num_of_misses: 0
16K_wo_prefill, hit rate: -nan
16K_wo_prefill, num_of_hits_demand: 0
16K_wo_prefill, num_of_misses_demand: 0
16K_wo_prefill, hit rate demand: -nan
16K_wo_prefill, num_of_hits_prefill: 0
16K_wo_prefill, num_of_misses_prefill: 0
16K_wo_prefill, hit rate prefill: -nan
16K_wo_prefill, num_of_hits_wrong_path: 0
16K_wo_prefill, num_of_misses_wrong_path: 0
16K_wo_prefill, btb_miss_stalls: 0
16K_wo_prefill, btb_miss_not_stalls: 0
16K_wo_prefill, direction_mispredictions_do_not_stall: 0
16K_wo_prefill, branch_direction_stalls: 0
16K_wo_prefill, target_prediction_stalls: 0
16K_wo_prefill, target misprediction reason NOTB: 0
16K_wo_prefill, target misprediction reason DJMP: 0
16K_wo_prefill, target misprediction reason INDR: 0
16K_wo_prefill, target misprediction reason COND: 0
16K_wo_prefill, target misprediction reason DCLL: 0
16K_wo_prefill, target misprediction reason ICLL: 0
16K_wo_prefill, target misprediction reason RETN: 0
16K_wo_prefill, target misprediction reason OTHR: 0
16K_wo_prefill, target misprediction reason EXCB: 0
16K_wo_prefill, target match reason NOTB: 0
16K_wo_prefill, target match reason DJMP: 0
16K_wo_prefill, target match reason INDR: 0
16K_wo_prefill, target match reason COND: 0
16K_wo_prefill, target match reason DCLL: 0
16K_wo_prefill, target match reason ICLL: 0
16K_wo_prefill, target match reason RETN: 0
16K_wo_prefill, target match reason OTHR: 0
16K_wo_prefill, target match reason EXCB: 0
16K_wo_prefill, num_of_hash_conflicts: 0
16K_wo_prefill, num_of_block_lookups: 0



SHEET
16K_with_prefill, num_of_lookups: 0
16K_with_prefill, num_of_updates: 0
16K_with_prefill, num_of_predecodes: 0
16K_with_prefill, num_of_hits: 0
16K_with_prefill, num_of_misses: 0
16K_with_prefill, hit rate: -nan
16K_with_prefill, num_of_hits_demand: 0
16K_with_prefill, num_of_misses_demand: 0
16K_with_prefill, hit rate demand: -nan
16K_with_prefill, num_of_hits_prefill: 0
16K_with_prefill, num_of_misses_prefill: 0
16K_with_prefill, hit rate prefill: -nan
16K_with_prefill, num_of_hits_wrong_path: 0
16K_with_prefill, num_of_misses_wrong_path: 0
16K_with_prefill, btb_miss_stalls: 0
16K_with_prefill, btb_miss_not_stalls: 0
16K_with_prefill, direction_mispredictions_do_not_stall: 0
16K_with_prefill, branch_direction_stalls: 0
16K_with_prefill, target_prediction_stalls: 0
16K_with_prefill, target misprediction reason NOTB: 0
16K_with_prefill, target misprediction reason DJMP: 0
16K_with_prefill, target misprediction reason INDR: 0
16K_with_prefill, target misprediction reason COND: 0
16K_with_prefill, target misprediction reason DCLL: 0
16K_with_prefill, target misprediction reason ICLL: 0
16K_with_prefill, target misprediction reason RETN: 0
16K_with_prefill, target misprediction reason OTHR: 0
16K_with_prefill, target misprediction reason EXCB: 0
16K_with_prefill, target match reason NOTB: 0
16K_with_prefill, target match reason DJMP: 0
16K_with_prefill, target match reason INDR: 0
16K_with_prefill, target match reason COND: 0
16K_with_prefill, target match reason DCLL: 0
16K_with_prefill, target match reason ICLL: 0
16K_with_prefill, target match reason RETN: 0
16K_with_prefill, target match reason OTHR: 0
16K_with_prefill, target match reason EXCB: 0
16K_with_prefill, num_of_hash_conflicts: 0
16K_with_prefill, num_of_block_lookups: 0



SHEET
32K_wo_prefill, num_of_lookups: 0
32K_wo_prefill, num_of_updates: 0
32K_wo_prefill, num_of_predecodes: 0
32K_wo_prefill, num_of_hits: 0
32K_wo_prefill, num_of_misses: 0
32K_wo_prefill, hit rate: -nan
32K_wo_prefill, num_of_hits_demand: 0
32K_wo_prefill, num_of_misses_demand: 0
32K_wo_prefill, hit rate demand: -nan
32K_wo_prefill, num_of_hits_prefill: 0
32K_wo_prefill, num_of_misses_prefill: 0
32K_wo_prefill, hit rate prefill: -nan
32K_wo_prefill, num_of_hits_wrong_path: 0
32K_wo_prefill, num_of_misses_wrong_path: 0
32K_wo_prefill, btb_miss_stalls: 0
32K_wo_prefill, btb_miss_not_stalls: 0
32K_wo_prefill, direction_mispredictions_do_not_stall: 0
32K_wo_prefill, branch_direction_stalls: 0
32K_wo_prefill, target_prediction_stalls: 0
32K_wo_prefill, target misprediction reason NOTB: 0
32K_wo_prefill, target misprediction reason DJMP: 0
32K_wo_prefill, target misprediction reason INDR: 0
32K_wo_prefill, target misprediction reason COND: 0
32K_wo_prefill, target misprediction reason DCLL: 0
32K_wo_prefill, target misprediction reason ICLL: 0
32K_wo_prefill, target misprediction reason RETN: 0
32K_wo_prefill, target misprediction reason OTHR: 0
32K_wo_prefill, target misprediction reason EXCB: 0
32K_wo_prefill, target match reason NOTB: 0
32K_wo_prefill, target match reason DJMP: 0
32K_wo_prefill, target match reason INDR: 0
32K_wo_prefill, target match reason COND: 0
32K_wo_prefill, target match reason DCLL: 0
32K_wo_prefill, target match reason ICLL: 0
32K_wo_prefill, target match reason RETN: 0
32K_wo_prefill, target match reason OTHR: 0
32K_wo_prefill, target match reason EXCB: 0
32K_wo_prefill, num_of_hash_conflicts: 0
32K_wo_prefill, num_of_block_lookups: 0



SHEET
32K_with_prefill, num_of_lookups: 0
32K_with_prefill, num_of_updates: 0
32K_with_prefill, num_of_predecodes: 0
32K_with_prefill, num_of_hits: 0
32K_with_prefill, num_of_misses: 0
32K_with_prefill, hit rate: -nan
32K_with_prefill, num_of_hits_demand: 0
32K_with_prefill, num_of_misses_demand: 0
32K_with_prefill, hit rate demand: -nan
32K_with_prefill, num_of_hits_prefill: 0
32K_with_prefill, num_of_misses_prefill: 0
32K_with_prefill, hit rate prefill: -nan
32K_with_prefill, num_of_hits_wrong_path: 0
32K_with_prefill, num_of_misses_wrong_path: 0
32K_with_prefill, btb_miss_stalls: 0
32K_with_prefill, btb_miss_not_stalls: 0
32K_with_prefill, direction_mispredictions_do_not_stall: 0
32K_with_prefill, branch_direction_stalls: 0
32K_with_prefill, target_prediction_stalls: 0
32K_with_prefill, target misprediction reason NOTB: 0
32K_with_prefill, target misprediction reason DJMP: 0
32K_with_prefill, target misprediction reason INDR: 0
32K_with_prefill, target misprediction reason COND: 0
32K_with_prefill, target misprediction reason DCLL: 0
32K_with_prefill, target misprediction reason ICLL: 0
32K_with_prefill, target misprediction reason RETN: 0
32K_with_prefill, target misprediction reason OTHR: 0
32K_with_prefill, target misprediction reason EXCB: 0
32K_with_prefill, target match reason NOTB: 0
32K_with_prefill, target match reason DJMP: 0
32K_with_prefill, target match reason INDR: 0
32K_with_prefill, target match reason COND: 0
32K_with_prefill, target match reason DCLL: 0
32K_with_prefill, target match reason ICLL: 0
32K_with_prefill, target match reason RETN: 0
32K_with_prefill, target match reason OTHR: 0
32K_with_prefill, target match reason EXCB: 0
32K_with_prefill, num_of_hash_conflicts: 0
32K_with_prefill, num_of_block_lookups: 0



SHEET
Confluence_BTB, num_of_lookups: 0
Confluence_BTB, num_of_updates: 0
Confluence_BTB, num_of_predecodes: 0
Confluence_BTB, num_of_hits: 0
Confluence_BTB, num_of_misses: 0
Confluence_BTB, hit rate: -nan
Confluence_BTB, num_of_hits_demand: 0
Confluence_BTB, num_of_misses_demand: 0
Confluence_BTB, hit rate demand: -nan
Confluence_BTB, num_of_hits_prefill: 0
Confluence_BTB, num_of_misses_prefill: 0
Confluence_BTB, hit rate prefill: -nan
Confluence_BTB, num_of_hits_wrong_path: 0
Confluence_BTB, num_of_misses_wrong_path: 0
Confluence_BTB, btb_miss_stalls: 0
Confluence_BTB, btb_miss_not_stalls: 0
Confluence_BTB, direction_mispredictions_do_not_stall: 0
Confluence_BTB, branch_direction_stalls: 0
Confluence_BTB, target_prediction_stalls: 0
Confluence_BTB, target misprediction reason NOTB: 0
Confluence_BTB, target misprediction reason DJMP: 0
Confluence_BTB, target misprediction reason INDR: 0
Confluence_BTB, target misprediction reason COND: 0
Confluence_BTB, target misprediction reason DCLL: 0
Confluence_BTB, target misprediction reason ICLL: 0
Confluence_BTB, target misprediction reason RETN: 0
Confluence_BTB, target misprediction reason OTHR: 0
Confluence_BTB, target misprediction reason EXCB: 0
Confluence_BTB, target match reason NOTB: 0
Confluence_BTB, target match reason DJMP: 0
Confluence_BTB, target match reason INDR: 0
Confluence_BTB, target match reason COND: 0
Confluence_BTB, target match reason DCLL: 0
Confluence_BTB, target match reason ICLL: 0
Confluence_BTB, target match reason RETN: 0
Confluence_BTB, target match reason OTHR: 0
Confluence_BTB, target match reason EXCB: 0



SHEET
2K_sn4l_BTB, num_of_lookups: 9732487
2K_sn4l_BTB, num_of_updates: 4592351
2K_sn4l_BTB, num_of_predecodes: 15787845
2K_sn4l_BTB, num_of_updates_pb: 12928958
2K_sn4l_BTB, num_of_hits: 7549213
2K_sn4l_BTB, num_of_misses: 2183274
2K_sn4l_BTB, hit rate: 0.775672
2K_sn4l_BTB, num_of_hits_demand: 7549213
2K_sn4l_BTB, num_of_misses_demand: 2183274
2K_sn4l_BTB, hit rate demand: 0.775672
2K_sn4l_BTB, num_of_hits_prefill: 0
2K_sn4l_BTB, num_of_misses_prefill: 0
2K_sn4l_BTB, hit rate prefill: -nan
2K_sn4l_BTB, num_of_hits_wrong_path: 0
2K_sn4l_BTB, num_of_misses_wrong_path: 0
2K_sn4l_BTB, btb_miss_stalls: 1203056
2K_sn4l_BTB, btb_miss_not_stalls: 980218
2K_sn4l_BTB, direction_mispredictions_do_not_stall: 1105
2K_sn4l_BTB, branch_direction_stalls: 3777
2K_sn4l_BTB, target_prediction_stalls: 69652
2K_sn4l_BTB, target misprediction reason NOTB: 0
2K_sn4l_BTB, target misprediction reason DJMP: 20
2K_sn4l_BTB, target misprediction reason INDR: 26335
2K_sn4l_BTB, target misprediction reason COND: 251
2K_sn4l_BTB, target misprediction reason DCLL: 55
2K_sn4l_BTB, target misprediction reason ICLL: 42985
2K_sn4l_BTB, target misprediction reason RETN: 6
2K_sn4l_BTB, target misprediction reason OTHR: 0
2K_sn4l_BTB, target misprediction reason EXCB: 0
2K_sn4l_BTB, target match reason NOTB: 0
2K_sn4l_BTB, target match reason DJMP: 632241
2K_sn4l_BTB, target match reason INDR: 62671
2K_sn4l_BTB, target match reason COND: 4873451
2K_sn4l_BTB, target match reason DCLL: 835174
2K_sn4l_BTB, target match reason ICLL: 50731
2K_sn4l_BTB, target match reason RETN: 1020411
2K_sn4l_BTB, target match reason OTHR: 0
2K_sn4l_BTB, target match reason EXCB: 0



SHEET
branches: 6291


SHEET
2K_wo_prefill btb_miss_stalls: 0
2K_wo_prefill branch_direction_stalls: 0
2K_wo_prefill target_prediction_stalls: 0
2K_with_prefill btb_miss_stalls: 0
2K_with_prefill branch_direction_stalls: 0
2K_with_prefill target_prediction_stalls: 0
4K_wo_prefill btb_miss_stalls: 0
4K_wo_prefill branch_direction_stalls: 0
4K_wo_prefill target_prediction_stalls: 0
4K_with_prefill btb_miss_stalls: 0
4K_with_prefill branch_direction_stalls: 0
4K_with_prefill target_prediction_stalls: 0
8K_wo_prefill btb_miss_stalls: 0
8K_wo_prefill branch_direction_stalls: 0
8K_wo_prefill target_prediction_stalls: 0
8K_with_prefill btb_miss_stalls: 0
8K_with_prefill branch_direction_stalls: 0
8K_with_prefill target_prediction_stalls: 0
16K_wo_prefill btb_miss_stalls: 0
16K_wo_prefill branch_direction_stalls: 0
16K_wo_prefill target_prediction_stalls: 0
16K_with_prefill btb_miss_stalls: 0
16K_with_prefill branch_direction_stalls: 0
16K_with_prefill target_prediction_stalls: 0
32K_wo_prefill btb_miss_stalls: 0
32K_wo_prefill branch_direction_stalls: 0
32K_wo_prefill target_prediction_stalls: 0
32K_with_prefill btb_miss_stalls: 0
32K_with_prefill branch_direction_stalls: 0
32K_with_prefill target_prediction_stalls: 0
Confluence_BTB btb_miss_stalls: 0
Confluence_BTB branch_direction_stalls: 0
Confluence_BTB target_prediction_stalls: 0
2K_sn4l_BTB btb_miss_stalls: 24.0611
2K_sn4l_BTB branch_direction_stalls: 0.07554
2K_sn4l_BTB target_prediction_stalls: 1.39304



CPU 0 L1D next line prefetcher final stats

DRAM Statistics
 CHANNEL 0
 RQ ROW_BUFFER_HIT:      70277  ROW_BUFFER_MISS:     208538
 DBUS_CONGESTED:     158702
 WQ ROW_BUFFER_HIT:      17247  ROW_BUFFER_MISS:      73718  FULL:          0

 AVG_CONGESTED_CYCLE: 5

CPU 0 Branch Prediction Accuracy: 99.9115% MPKI: 0.17232 Average ROB Occupancy at Mispredict: 199.354

Branch types
NOT_BRANCH: 40267237 80.5345%
BRANCH_DIRECT_JUMP: 771899 1.5438%
BRANCH_INDIRECT: 108179 0.216358%
BRANCH_CONDITIONAL: 6307163 12.6143%
BRANCH_DIRECT_CALL: 1060893 2.12179%
BRANCH_INDIRECT_CALL: 211719 0.423438%
BRANCH_RETURN: 1272634 2.54527%
BRANCH_OTHER: 0 0%

